McPAT (version 1.0 of Aug, 2013) is computing the target processor...
 

McPAT (version 1.0 of Aug, 2013) results  (current print level is 5)
*****************************************************************************************
  Technology 45 nm
  Using Long Channel Devices When Appropriate
  Interconnect metal projection= aggressive interconnect technology projection
  Core clock Rate(MHz) 2660

*****************************************************************************************
Processor: 
  Area = 962.008 mm^2
  Peak Power = 693.313 W
  Total Leakage = 177.215 W
  Peak Dynamic = 516.098 W
  Subthreshold Leakage = 170.358 W
  Subthreshold Leakage with power gating = 73.9956 W
  Gate Leakage = 6.85755 W
  Runtime Dynamic = 170.818 W

  Total Cores: 16 cores 
  Device Type= ITRS high performance device type
    Area = 832.354 mm^2
    Peak Dynamic = 515.69 W
    Subthreshold Leakage = 156.593 W
    Subthreshold Leakage with power gating = 66.4632 W
    Gate Leakage = 6.74505 W
    Runtime Dynamic = 170.744 W

  Total L3s: 
  Device Type= ITRS high performance device type
    Area = 123.815 mm^2
    Peak Dynamic = 0.0964185 W
    Subthreshold Leakage = 13.6017 W
    Subthreshold Leakage with power gating = 6.64728 W
    Gate Leakage = 0.0968273 W
    Runtime Dynamic = 0.0330501 W

  Total NoCs (Network/Bus): 
  Device Type= ITRS high performance device type
    Area = 5.83965 mm^2
    Peak Dynamic = 0.311869 W
    Subthreshold Leakage = 0.163365 W
    Subthreshold Leakage with power gating = 0.0612617 W
    Gate Leakage = 0.0156661 W
    Runtime Dynamic = 0.0416714 W

*****************************************************************************************
Core:
      Area = 52.0221 mm^2
      Peak Dynamic = 32.5514 W
      Subthreshold Leakage = 9.78705 W
      Subthreshold Leakage with power gating = 4.15395 W
      Gate Leakage = 0.421566 W
      Runtime Dynamic = 11.0174 W

      Instruction Fetch Unit:
        Area = 7.57986 mm^2
        Peak Dynamic = 11.6996 W
        Subthreshold Leakage = 1.0522 W
        Subthreshold Leakage with power gating = 0.455066 W
        Gate Leakage = 0.0712372 W
        Runtime Dynamic = 0.912638 W

          Instruction Cache:
            Area = 4.86613 mm^2
            Peak Dynamic = 9.16413 W
            Subthreshold Leakage = 0.486629 W
            Subthreshold Leakage with power gating = 0.22691 W
            Gate Leakage = 0.0421203 W
            Runtime Dynamic = 0.0220539 W

          Branch Target Buffer:
            Area = 0.64954 mm^2
            Peak Dynamic = 0.177867 W
            Subthreshold Leakage = 0.0811682 W
            Subthreshold Leakage with power gating = 0.0435357 W
            Gate Leakage = 0.00272758 W
            Runtime Dynamic = 0.0779156 W

          Branch Predictor:
            Area = 0.138516 mm^2
            Peak Dynamic = 0.0597838 W
            Subthreshold Leakage = 0.0199703 W
            Subthreshold Leakage with power gating = 0.0103282 W
            Gate Leakage = 0.000757657 W
            Runtime Dynamic = 0.0253761 W

              Global Predictor:
                Area = 0.0435221 mm^2
                Peak Dynamic = 0.0168831 W
                Subthreshold Leakage = 0.00759719 W
                Subthreshold Leakage with power gating = 0.0039236 W
                Gate Leakage = 0.000278362 W
                Runtime Dynamic = 0.0079255 W

              Local Predictor:
              L1_Local Predictor:
                Area = 0.0257064 mm^2
                Peak Dynamic = 0.0142575 W
                Subthreshold Leakage = 0.00384344 W
                Subthreshold Leakage with power gating = 0.00198631 W
                Gate Leakage = 0.000154548 W
                Runtime Dynamic = 0.00684918 W

              L2_Local Predictor:
                Area = 0.0151917 mm^2
                Peak Dynamic = 0.00527447 W
                Subthreshold Leakage = 0.00181347 W
                Subthreshold Leakage with power gating = 0.000957045 W
                Gate Leakage = 8.00196e-05 W
                Runtime Dynamic = 0.00262194 W

              Chooser:
                Area = 0.0435221 mm^2
                Peak Dynamic = 0.0168831 W
                Subthreshold Leakage = 0.00759719 W
                Subthreshold Leakage with power gating = 0.0039236 W
                Gate Leakage = 0.000278362 W
                Runtime Dynamic = 0.0079255 W

              RAS:
                Area = 0.0105732 mm^2
                Peak Dynamic = 0.0117602 W
                Subthreshold Leakage = 0.000932505 W
                Subthreshold Leakage with power gating = 0.000494733 W
                Gate Leakage = 4.63858e-05 W
                Runtime Dynamic = 0.00267591 W

          Instruction Buffer:
            Area = 0.0226323 mm^2
            Peak Dynamic = 0.606827 W
            Subthreshold Leakage = 0.00151885 W
            Subthreshold Leakage with power gating = 0.000701682 W
            Gate Leakage = 6.83558e-05 W
            Runtime Dynamic = 0.179074 W

          Instruction Decoder:
            Area = 1.85799 mm^2
            Peak Dynamic = 1.37404 W
            Subthreshold Leakage = 0.442943 W
            Subthreshold Leakage with power gating = 0.166104 W
            Gate Leakage = 0.0222493 W
            Runtime Dynamic = 0.608217 W

      Renaming Unit:
        Area = 0.369768 mm^2
        Peak Dynamic = 4.56169 W
        Subthreshold Leakage = 0.070483 W
        Subthreshold Leakage with power gating = 0.0362779 W
        Gate Leakage = 0.00863632 W
        Runtime Dynamic = 0.400503 W

          Int Front End RAT:
            Area = 0.114751 mm^2
            Peak Dynamic = 0.86945 W
            Subthreshold Leakage = 0.00611897 W
            Subthreshold Leakage with power gating = 0.00348781 W
            Gate Leakage = 0.00038343 W
            Runtime Dynamic = 0.358155 W

          FP Front End RAT:
            Area = 0.168486 mm^2
            Peak Dynamic = 3.33511 W
            Subthreshold Leakage = 0.0437281 W
            Subthreshold Leakage with power gating = 0.024925 W
            Gate Leakage = 0.00489731 W
            Runtime Dynamic = 0.00673833 W

          Free List:
            Area = 0.0414755 mm^2
            Peak Dynamic = 0.0401324 W
            Subthreshold Leakage = 0.000670426 W
            Subthreshold Leakage with power gating = 0.000377987 W
            Gate Leakage = 4.15911e-05 W
            Runtime Dynamic = 0.0356103 W

      Load Store Unit:
        Area = 8.80969 mm^2
        Peak Dynamic = 9.12583 W
        Subthreshold Leakage = 0.591622 W
        Subthreshold Leakage with power gating = 0.283406 W
        Gate Leakage = 0.0351387 W
        Runtime Dynamic = 4.59954 W

          Data Cache:
            Area = 6.84535 mm^2
            Peak Dynamic = 8.07666 W
            Subthreshold Leakage = 0.527675 W
            Subthreshold Leakage with power gating = 0.25085 W
            Gate Leakage = 0.0279261 W
            Runtime Dynamic = 3.28701 W

          LoadQ:
            Area = 0.0836782 mm^2
            Peak Dynamic = 0.221276 W
            Subthreshold Leakage = 0.00941961 W
            Subthreshold Leakage with power gating = 0.00536918 W
            Gate Leakage = 0.00059896 W
            Runtime Dynamic = 0.221276 W

          StoreQ:
            Area = 0.322079 mm^2
            Peak Dynamic = 0.545628 W
            Subthreshold Leakage = 0.0345621 W
            Subthreshold Leakage with power gating = 0.0197004 W
            Gate Leakage = 0.00329971 W
            Runtime Dynamic = 1.09126 W

      Memory Management Unit:
        Area = 0.434579 mm^2
        Peak Dynamic = 0.893269 W
        Subthreshold Leakage = 0.0769113 W
        Subthreshold Leakage with power gating = 0.0399462 W
        Gate Leakage = 0.00813591 W
        Runtime Dynamic = 0.195396 W

          Itlb:
            Area = 0.301552 mm^2
            Peak Dynamic = 0.399995 W
            Subthreshold Leakage = 0.0413758 W
            Subthreshold Leakage with power gating = 0.0235842 W
            Gate Leakage = 0.00393464 W
            Runtime Dynamic = 0.00170606 W

          Dtlb:
            Area = 0.0879726 mm^2
            Peak Dynamic = 0.193645 W
            Subthreshold Leakage = 0.0155699 W
            Subthreshold Leakage with power gating = 0.00887485 W
            Gate Leakage = 0.00088729 W
            Runtime Dynamic = 0.19369 W

      Execution Unit:
        Area = 8.2042 mm^2
        Peak Dynamic = 6.26564 W
        Subthreshold Leakage = 1.83518 W
        Subthreshold Leakage with power gating = 0.709678 W
        Gate Leakage = 0.122718 W
        Runtime Dynamic = 4.90887 W

          Register Files:
            Area = 0.570804 mm^2
            Peak Dynamic = 0.184783 W
            Subthreshold Leakage = 0.0101387 W
            Subthreshold Leakage with power gating = 0.00423643 W
            Gate Leakage = 0.000622708 W
            Runtime Dynamic = 0.211466 W

              Integer RF:
                Area = 0.362673 mm^2
                Peak Dynamic = 0.182851 W
                Subthreshold Leakage = 0.00614175 W
                Subthreshold Leakage with power gating = 0.00246675 W
                Gate Leakage = 0.00038992 W
                Runtime Dynamic = 0.186279 W

              Floating Point RF:
                Area = 0.208131 mm^2
                Peak Dynamic = 0.00193151 W
                Subthreshold Leakage = 0.00399698 W
                Subthreshold Leakage with power gating = 0.00176968 W
                Gate Leakage = 0.000232788 W
                Runtime Dynamic = 0.0251877 W

          Instruction Scheduler:
            Area = 2.17927 mm^2
            Peak Dynamic = 4.84781 W
            Subthreshold Leakage = 0.114878 W
            Subthreshold Leakage with power gating = 0.0641291 W
            Gate Leakage = 0.00730101 W
            Runtime Dynamic = 2.58969 W

              Instruction Window:
                Area = 1.00996 mm^2
                Peak Dynamic = 2.07911 W
                Subthreshold Leakage = 0.0800117 W
                Subthreshold Leakage with power gating = 0.0455351 W
                Gate Leakage = 0.00529112 W
                Runtime Dynamic = 1.20317 W

              FP Instruction Window:
                Area = 0.328073 mm^2
                Peak Dynamic = 1.20978 W
                Subthreshold Leakage = 0.017004 W
                Subthreshold Leakage with power gating = 0.00962066 W
                Gate Leakage = 0.00115349 W
                Runtime Dynamic = 0.694819 W

              ROB:
                Area = 0.841232 mm^2
                Peak Dynamic = 1.55892 W
                Subthreshold Leakage = 0.0178624 W
                Subthreshold Leakage with power gating = 0.00897339 W
                Gate Leakage = 0.000856399 W
                Runtime Dynamic = 0.691694 W

          Integer ALUs (Count: 6 ):
            Area = 0.47087 mm^2
            Peak Dynamic = 0.685232 W
            Subthreshold Leakage = 0.40222 W
            Subthreshold Leakage with power gating = 0.150833 W
            Gate Leakage = 0.0265291 W
            Runtime Dynamic = 0.59578 W

          Floating Point Units (FPUs) (Count: 2 ):
            Area = 4.6585 mm^2
            Peak Dynamic = 0.0102239 W
            Subthreshold Leakage = 0.994829 W
            Subthreshold Leakage with power gating = 0.373061 W
            Gate Leakage = 0.0656156 W
            Runtime Dynamic = 0.30853 W

          Complex ALUs (Mul/Div) (Count: 1 ):
            Area = 0.235435 mm^2
            Peak Dynamic = 0.00189883 W
            Subthreshold Leakage = 0.20111 W
            Subthreshold Leakage with power gating = 0.0754163 W
            Gate Leakage = 0.0132646 W
            Runtime Dynamic = 0.20418 W

          Results Broadcast Bus:
            Area Overhead = 0.0442632 mm^2
            Peak Dynamic = 0.442363 W
            Subthreshold Leakage = 0.0920413 W
            Subthreshold Leakage with power gating = 0.0345155 W
            Gate Leakage = 0.00607074 W
            Runtime Dynamic = 0.999222 W

    L2
    Area = 22.2273 mm^2
    Peak Dynamic = 0.00536256 W
    Subthreshold Leakage = 4.28281 W
    Subthreshold Leakage with power gating = 1.92539 W
    Gate Leakage = 0.0518439 W
    Runtime Dynamic = 0.000409875 W

*****************************************************************************************
Core:
      Area = 52.0221 mm^2
      Peak Dynamic = 32.2853 W
      Subthreshold Leakage = 9.78705 W
      Subthreshold Leakage with power gating = 4.15395 W
      Gate Leakage = 0.421566 W
      Runtime Dynamic = 10.7304 W

      Instruction Fetch Unit:
        Area = 7.57986 mm^2
        Peak Dynamic = 11.6996 W
        Subthreshold Leakage = 1.0522 W
        Subthreshold Leakage with power gating = 0.455066 W
        Gate Leakage = 0.0712372 W
        Runtime Dynamic = 0.887879 W

          Instruction Cache:
            Area = 4.86613 mm^2
            Peak Dynamic = 9.16413 W
            Subthreshold Leakage = 0.486629 W
            Subthreshold Leakage with power gating = 0.22691 W
            Gate Leakage = 0.0421203 W
            Runtime Dynamic = 0.0220505 W

          Branch Target Buffer:
            Area = 0.64954 mm^2
            Peak Dynamic = 0.177867 W
            Subthreshold Leakage = 0.0811682 W
            Subthreshold Leakage with power gating = 0.0435357 W
            Gate Leakage = 0.00272758 W
            Runtime Dynamic = 0.0757298 W

          Branch Predictor:
            Area = 0.138516 mm^2
            Peak Dynamic = 0.0597838 W
            Subthreshold Leakage = 0.0199703 W
            Subthreshold Leakage with power gating = 0.0103282 W
            Gate Leakage = 0.000757657 W
            Runtime Dynamic = 0.0246649 W

              Global Predictor:
                Area = 0.0435221 mm^2
                Peak Dynamic = 0.0168831 W
                Subthreshold Leakage = 0.00759719 W
                Subthreshold Leakage with power gating = 0.0039236 W
                Gate Leakage = 0.000278362 W
                Runtime Dynamic = 0.00770314 W

              Local Predictor:
              L1_Local Predictor:
                Area = 0.0257064 mm^2
                Peak Dynamic = 0.0142575 W
                Subthreshold Leakage = 0.00384344 W
                Subthreshold Leakage with power gating = 0.00198631 W
                Gate Leakage = 0.000154548 W
                Runtime Dynamic = 0.00665701 W

              L2_Local Predictor:
                Area = 0.0151917 mm^2
                Peak Dynamic = 0.00527447 W
                Subthreshold Leakage = 0.00181347 W
                Subthreshold Leakage with power gating = 0.000957045 W
                Gate Leakage = 8.00196e-05 W
                Runtime Dynamic = 0.00254837 W

              Chooser:
                Area = 0.0435221 mm^2
                Peak Dynamic = 0.0168831 W
                Subthreshold Leakage = 0.00759719 W
                Subthreshold Leakage with power gating = 0.0039236 W
                Gate Leakage = 0.000278362 W
                Runtime Dynamic = 0.00770314 W

              RAS:
                Area = 0.0105732 mm^2
                Peak Dynamic = 0.0117602 W
                Subthreshold Leakage = 0.000932505 W
                Subthreshold Leakage with power gating = 0.000494733 W
                Gate Leakage = 4.63858e-05 W
                Runtime Dynamic = 0.00260161 W

          Instruction Buffer:
            Area = 0.0226323 mm^2
            Peak Dynamic = 0.606827 W
            Subthreshold Leakage = 0.00151885 W
            Subthreshold Leakage with power gating = 0.000701682 W
            Gate Leakage = 6.83558e-05 W
            Runtime Dynamic = 0.174103 W

          Instruction Decoder:
            Area = 1.85799 mm^2
            Peak Dynamic = 1.37404 W
            Subthreshold Leakage = 0.442943 W
            Subthreshold Leakage with power gating = 0.166104 W
            Gate Leakage = 0.0222493 W
            Runtime Dynamic = 0.591331 W

      Renaming Unit:
        Area = 0.369768 mm^2
        Peak Dynamic = 4.56169 W
        Subthreshold Leakage = 0.070483 W
        Subthreshold Leakage with power gating = 0.0362779 W
        Gate Leakage = 0.00863632 W
        Runtime Dynamic = 0.389574 W

          Int Front End RAT:
            Area = 0.114751 mm^2
            Peak Dynamic = 0.86945 W
            Subthreshold Leakage = 0.00611897 W
            Subthreshold Leakage with power gating = 0.00348781 W
            Gate Leakage = 0.00038343 W
            Runtime Dynamic = 0.348212 W

          FP Front End RAT:
            Area = 0.168486 mm^2
            Peak Dynamic = 3.33511 W
            Subthreshold Leakage = 0.0437281 W
            Subthreshold Leakage with power gating = 0.024925 W
            Gate Leakage = 0.00489731 W
            Runtime Dynamic = 0.00673833 W

          Free List:
            Area = 0.0414755 mm^2
            Peak Dynamic = 0.0401324 W
            Subthreshold Leakage = 0.000670426 W
            Subthreshold Leakage with power gating = 0.000377987 W
            Gate Leakage = 4.15911e-05 W
            Runtime Dynamic = 0.0346239 W

      Load Store Unit:
        Area = 8.80969 mm^2
        Peak Dynamic = 8.90807 W
        Subthreshold Leakage = 0.591622 W
        Subthreshold Leakage with power gating = 0.283406 W
        Gate Leakage = 0.0351387 W
        Runtime Dynamic = 4.47255 W

          Data Cache:
            Area = 6.84535 mm^2
            Peak Dynamic = 7.88787 W
            Subthreshold Leakage = 0.527675 W
            Subthreshold Leakage with power gating = 0.25085 W
            Gate Leakage = 0.0279261 W
            Runtime Dynamic = 3.19625 W

          LoadQ:
            Area = 0.0836782 mm^2
            Peak Dynamic = 0.215168 W
            Subthreshold Leakage = 0.00941961 W
            Subthreshold Leakage with power gating = 0.00536918 W
            Gate Leakage = 0.00059896 W
            Runtime Dynamic = 0.215168 W

          StoreQ:
            Area = 0.322079 mm^2
            Peak Dynamic = 0.530566 W
            Subthreshold Leakage = 0.0345621 W
            Subthreshold Leakage with power gating = 0.0197004 W
            Gate Leakage = 0.00329971 W
            Runtime Dynamic = 1.06113 W

      Memory Management Unit:
        Area = 0.434579 mm^2
        Peak Dynamic = 0.884028 W
        Subthreshold Leakage = 0.0769113 W
        Subthreshold Leakage with power gating = 0.0399462 W
        Gate Leakage = 0.00813591 W
        Runtime Dynamic = 0.190048 W

          Itlb:
            Area = 0.301552 mm^2
            Peak Dynamic = 0.399995 W
            Subthreshold Leakage = 0.0413758 W
            Subthreshold Leakage with power gating = 0.0235842 W
            Gate Leakage = 0.00393464 W
            Runtime Dynamic = 0.0017058 W

          Dtlb:
            Area = 0.0879726 mm^2
            Peak Dynamic = 0.1883 W
            Subthreshold Leakage = 0.0155699 W
            Subthreshold Leakage with power gating = 0.00887485 W
            Gate Leakage = 0.00088729 W
            Runtime Dynamic = 0.188342 W

      Execution Unit:
        Area = 8.2042 mm^2
        Peak Dynamic = 6.2267 W
        Subthreshold Leakage = 1.83518 W
        Subthreshold Leakage with power gating = 0.709678 W
        Gate Leakage = 0.122718 W
        Runtime Dynamic = 4.78997 W

          Register Files:
            Area = 0.570804 mm^2
            Peak Dynamic = 0.179726 W
            Subthreshold Leakage = 0.0101387 W
            Subthreshold Leakage with power gating = 0.00423643 W
            Gate Leakage = 0.000622708 W
            Runtime Dynamic = 0.205595 W

              Integer RF:
                Area = 0.362673 mm^2
                Peak Dynamic = 0.177794 W
                Subthreshold Leakage = 0.00614175 W
                Subthreshold Leakage with power gating = 0.00246675 W
                Gate Leakage = 0.00038992 W
                Runtime Dynamic = 0.181107 W

              Floating Point RF:
                Area = 0.208131 mm^2
                Peak Dynamic = 0.00193151 W
                Subthreshold Leakage = 0.00399698 W
                Subthreshold Leakage with power gating = 0.00176968 W
                Gate Leakage = 0.000232788 W
                Runtime Dynamic = 0.0244884 W

          Instruction Scheduler:
            Area = 2.17927 mm^2
            Peak Dynamic = 4.84781 W
            Subthreshold Leakage = 0.114878 W
            Subthreshold Leakage with power gating = 0.0641291 W
            Gate Leakage = 0.00730101 W
            Runtime Dynamic = 2.51783 W

              Instruction Window:
                Area = 1.00996 mm^2
                Peak Dynamic = 2.07911 W
                Subthreshold Leakage = 0.0800117 W
                Subthreshold Leakage with power gating = 0.0455351 W
                Gate Leakage = 0.00529112 W
                Runtime Dynamic = 1.16977 W

              FP Instruction Window:
                Area = 0.328073 mm^2
                Peak Dynamic = 1.20978 W
                Subthreshold Leakage = 0.017004 W
                Subthreshold Leakage with power gating = 0.00962066 W
                Gate Leakage = 0.00115349 W
                Runtime Dynamic = 0.675528 W

              ROB:
                Area = 0.841232 mm^2
                Peak Dynamic = 1.55892 W
                Subthreshold Leakage = 0.0178624 W
                Subthreshold Leakage with power gating = 0.00897339 W
                Gate Leakage = 0.000856399 W
                Runtime Dynamic = 0.672536 W

          Integer ALUs (Count: 6 ):
            Area = 0.47087 mm^2
            Peak Dynamic = 0.666164 W
            Subthreshold Leakage = 0.40222 W
            Subthreshold Leakage with power gating = 0.150833 W
            Gate Leakage = 0.0265291 W
            Runtime Dynamic = 0.582102 W

          Floating Point Units (FPUs) (Count: 2 ):
            Area = 4.6585 mm^2
            Peak Dynamic = 0.0102239 W
            Subthreshold Leakage = 0.994829 W
            Subthreshold Leakage with power gating = 0.373061 W
            Gate Leakage = 0.0656156 W
            Runtime Dynamic = 0.30853 W

          Complex ALUs (Mul/Div) (Count: 1 ):
            Area = 0.235435 mm^2
            Peak Dynamic = 0.00189883 W
            Subthreshold Leakage = 0.20111 W
            Subthreshold Leakage with power gating = 0.0754163 W
            Gate Leakage = 0.0132646 W
            Runtime Dynamic = 0.20418 W

          Results Broadcast Bus:
            Area Overhead = 0.0442632 mm^2
            Peak Dynamic = 0.430144 W
            Subthreshold Leakage = 0.0920413 W
            Subthreshold Leakage with power gating = 0.0345155 W
            Gate Leakage = 0.00607074 W
            Runtime Dynamic = 0.971727 W

    L2
    Area = 22.2273 mm^2
    Peak Dynamic = 0.00514218 W
    Subthreshold Leakage = 4.28281 W
    Subthreshold Leakage with power gating = 1.92539 W
    Gate Leakage = 0.0518439 W
    Runtime Dynamic = 0.000373248 W

*****************************************************************************************
Core:
      Area = 52.0221 mm^2
      Peak Dynamic = 32.5848 W
      Subthreshold Leakage = 9.78705 W
      Subthreshold Leakage with power gating = 4.15395 W
      Gate Leakage = 0.421566 W
      Runtime Dynamic = 11.0534 W

      Instruction Fetch Unit:
        Area = 7.57986 mm^2
        Peak Dynamic = 11.6996 W
        Subthreshold Leakage = 1.0522 W
        Subthreshold Leakage with power gating = 0.455066 W
        Gate Leakage = 0.0712372 W
        Runtime Dynamic = 0.915748 W

          Instruction Cache:
            Area = 4.86613 mm^2
            Peak Dynamic = 9.16413 W
            Subthreshold Leakage = 0.486629 W
            Subthreshold Leakage with power gating = 0.22691 W
            Gate Leakage = 0.0421203 W
            Runtime Dynamic = 0.0220509 W

          Branch Target Buffer:
            Area = 0.64954 mm^2
            Peak Dynamic = 0.177867 W
            Subthreshold Leakage = 0.0811682 W
            Subthreshold Leakage with power gating = 0.0435357 W
            Gate Leakage = 0.00272758 W
            Runtime Dynamic = 0.0781906 W

          Branch Predictor:
            Area = 0.138516 mm^2
            Peak Dynamic = 0.0597838 W
            Subthreshold Leakage = 0.0199703 W
            Subthreshold Leakage with power gating = 0.0103282 W
            Gate Leakage = 0.000757657 W
            Runtime Dynamic = 0.0254655 W

              Global Predictor:
                Area = 0.0435221 mm^2
                Peak Dynamic = 0.0168831 W
                Subthreshold Leakage = 0.00759719 W
                Subthreshold Leakage with power gating = 0.0039236 W
                Gate Leakage = 0.000278362 W
                Runtime Dynamic = 0.00795344 W

              Local Predictor:
              L1_Local Predictor:
                Area = 0.0257064 mm^2
                Peak Dynamic = 0.0142575 W
                Subthreshold Leakage = 0.00384344 W
                Subthreshold Leakage with power gating = 0.00198631 W
                Gate Leakage = 0.000154548 W
                Runtime Dynamic = 0.00687332 W

              L2_Local Predictor:
                Area = 0.0151917 mm^2
                Peak Dynamic = 0.00527447 W
                Subthreshold Leakage = 0.00181347 W
                Subthreshold Leakage with power gating = 0.000957045 W
                Gate Leakage = 8.00196e-05 W
                Runtime Dynamic = 0.00263117 W

              Chooser:
                Area = 0.0435221 mm^2
                Peak Dynamic = 0.0168831 W
                Subthreshold Leakage = 0.00759719 W
                Subthreshold Leakage with power gating = 0.0039236 W
                Gate Leakage = 0.000278362 W
                Runtime Dynamic = 0.00795344 W

              RAS:
                Area = 0.0105732 mm^2
                Peak Dynamic = 0.0117602 W
                Subthreshold Leakage = 0.000932505 W
                Subthreshold Leakage with power gating = 0.000494733 W
                Gate Leakage = 4.63858e-05 W
                Runtime Dynamic = 0.00268525 W

          Instruction Buffer:
            Area = 0.0226323 mm^2
            Peak Dynamic = 0.606827 W
            Subthreshold Leakage = 0.00151885 W
            Subthreshold Leakage with power gating = 0.000701682 W
            Gate Leakage = 6.83558e-05 W
            Runtime Dynamic = 0.1797 W

          Instruction Decoder:
            Area = 1.85799 mm^2
            Peak Dynamic = 1.37404 W
            Subthreshold Leakage = 0.442943 W
            Subthreshold Leakage with power gating = 0.166104 W
            Gate Leakage = 0.0222493 W
            Runtime Dynamic = 0.610342 W

      Renaming Unit:
        Area = 0.369768 mm^2
        Peak Dynamic = 4.56169 W
        Subthreshold Leakage = 0.070483 W
        Subthreshold Leakage with power gating = 0.0362779 W
        Gate Leakage = 0.00863632 W
        Runtime Dynamic = 0.401878 W

          Int Front End RAT:
            Area = 0.114751 mm^2
            Peak Dynamic = 0.86945 W
            Subthreshold Leakage = 0.00611897 W
            Subthreshold Leakage with power gating = 0.00348781 W
            Gate Leakage = 0.00038343 W
            Runtime Dynamic = 0.359405 W

          FP Front End RAT:
            Area = 0.168486 mm^2
            Peak Dynamic = 3.33511 W
            Subthreshold Leakage = 0.0437281 W
            Subthreshold Leakage with power gating = 0.024925 W
            Gate Leakage = 0.00489731 W
            Runtime Dynamic = 0.00673833 W

          Free List:
            Area = 0.0414755 mm^2
            Peak Dynamic = 0.0401324 W
            Subthreshold Leakage = 0.000670426 W
            Subthreshold Leakage with power gating = 0.000377987 W
            Gate Leakage = 4.15911e-05 W
            Runtime Dynamic = 0.0357344 W

      Load Store Unit:
        Area = 8.80969 mm^2
        Peak Dynamic = 9.15322 W
        Subthreshold Leakage = 0.591622 W
        Subthreshold Leakage with power gating = 0.283406 W
        Gate Leakage = 0.0351387 W
        Runtime Dynamic = 4.61548 W

          Data Cache:
            Area = 6.84535 mm^2
            Peak Dynamic = 8.10041 W
            Subthreshold Leakage = 0.527675 W
            Subthreshold Leakage with power gating = 0.25085 W
            Gate Leakage = 0.0279261 W
            Runtime Dynamic = 3.2984 W

          LoadQ:
            Area = 0.0836782 mm^2
            Peak Dynamic = 0.222044 W
            Subthreshold Leakage = 0.00941961 W
            Subthreshold Leakage with power gating = 0.00536918 W
            Gate Leakage = 0.00059896 W
            Runtime Dynamic = 0.222044 W

          StoreQ:
            Area = 0.322079 mm^2
            Peak Dynamic = 0.547522 W
            Subthreshold Leakage = 0.0345621 W
            Subthreshold Leakage with power gating = 0.0197004 W
            Gate Leakage = 0.00329971 W
            Runtime Dynamic = 1.09504 W

      Memory Management Unit:
        Area = 0.434579 mm^2
        Peak Dynamic = 0.894431 W
        Subthreshold Leakage = 0.0769113 W
        Subthreshold Leakage with power gating = 0.0399462 W
        Gate Leakage = 0.00813591 W
        Runtime Dynamic = 0.196068 W

          Itlb:
            Area = 0.301552 mm^2
            Peak Dynamic = 0.399995 W
            Subthreshold Leakage = 0.0413758 W
            Subthreshold Leakage with power gating = 0.0235842 W
            Gate Leakage = 0.00393464 W
            Runtime Dynamic = 0.00170583 W

          Dtlb:
            Area = 0.0879726 mm^2
            Peak Dynamic = 0.194318 W
            Subthreshold Leakage = 0.0155699 W
            Subthreshold Leakage with power gating = 0.00887485 W
            Gate Leakage = 0.00088729 W
            Runtime Dynamic = 0.194362 W

      Execution Unit:
        Area = 8.2042 mm^2
        Peak Dynamic = 6.27054 W
        Subthreshold Leakage = 1.83518 W
        Subthreshold Leakage with power gating = 0.709678 W
        Gate Leakage = 0.122718 W
        Runtime Dynamic = 4.92382 W

          Register Files:
            Area = 0.570804 mm^2
            Peak Dynamic = 0.185419 W
            Subthreshold Leakage = 0.0101387 W
            Subthreshold Leakage with power gating = 0.00423643 W
            Gate Leakage = 0.000622708 W
            Runtime Dynamic = 0.212205 W

              Integer RF:
                Area = 0.362673 mm^2
                Peak Dynamic = 0.183487 W
                Subthreshold Leakage = 0.00614175 W
                Subthreshold Leakage with power gating = 0.00246675 W
                Gate Leakage = 0.00038992 W
                Runtime Dynamic = 0.186929 W

              Floating Point RF:
                Area = 0.208131 mm^2
                Peak Dynamic = 0.00193151 W
                Subthreshold Leakage = 0.00399698 W
                Subthreshold Leakage with power gating = 0.00176968 W
                Gate Leakage = 0.000232788 W
                Runtime Dynamic = 0.0252757 W

          Instruction Scheduler:
            Area = 2.17927 mm^2
            Peak Dynamic = 4.84781 W
            Subthreshold Leakage = 0.114878 W
            Subthreshold Leakage with power gating = 0.0641291 W
            Gate Leakage = 0.00730101 W
            Runtime Dynamic = 2.59873 W

              Instruction Window:
                Area = 1.00996 mm^2
                Peak Dynamic = 2.07911 W
                Subthreshold Leakage = 0.0800117 W
                Subthreshold Leakage with power gating = 0.0455351 W
                Gate Leakage = 0.00529112 W
                Runtime Dynamic = 1.20738 W

              FP Instruction Window:
                Area = 0.328073 mm^2
                Peak Dynamic = 1.20978 W
                Subthreshold Leakage = 0.017004 W
                Subthreshold Leakage with power gating = 0.00962066 W
                Gate Leakage = 0.00115349 W
                Runtime Dynamic = 0.697245 W

              ROB:
                Area = 0.841232 mm^2
                Peak Dynamic = 1.55892 W
                Subthreshold Leakage = 0.0178624 W
                Subthreshold Leakage with power gating = 0.00897339 W
                Gate Leakage = 0.000856399 W
                Runtime Dynamic = 0.694104 W

          Integer ALUs (Count: 6 ):
            Area = 0.47087 mm^2
            Peak Dynamic = 0.687631 W
            Subthreshold Leakage = 0.40222 W
            Subthreshold Leakage with power gating = 0.150833 W
            Gate Leakage = 0.0265291 W
            Runtime Dynamic = 0.597501 W

          Floating Point Units (FPUs) (Count: 2 ):
            Area = 4.6585 mm^2
            Peak Dynamic = 0.0102239 W
            Subthreshold Leakage = 0.994829 W
            Subthreshold Leakage with power gating = 0.373061 W
            Gate Leakage = 0.0656156 W
            Runtime Dynamic = 0.30853 W

          Complex ALUs (Mul/Div) (Count: 1 ):
            Area = 0.235435 mm^2
            Peak Dynamic = 0.00189883 W
            Subthreshold Leakage = 0.20111 W
            Subthreshold Leakage with power gating = 0.0754163 W
            Gate Leakage = 0.0132646 W
            Runtime Dynamic = 0.20418 W

          Results Broadcast Bus:
            Area Overhead = 0.0442632 mm^2
            Peak Dynamic = 0.443901 W
            Subthreshold Leakage = 0.0920413 W
            Subthreshold Leakage with power gating = 0.0345155 W
            Gate Leakage = 0.00607074 W
            Runtime Dynamic = 1.00268 W

    L2
    Area = 22.2273 mm^2
    Peak Dynamic = 0.00530746 W
    Subthreshold Leakage = 4.28281 W
    Subthreshold Leakage with power gating = 1.92539 W
    Gate Leakage = 0.0518439 W
    Runtime Dynamic = 0.000380136 W

*****************************************************************************************
Core:
      Area = 52.0221 mm^2
      Peak Dynamic = 32.5489 W
      Subthreshold Leakage = 9.78705 W
      Subthreshold Leakage with power gating = 4.15395 W
      Gate Leakage = 0.421566 W
      Runtime Dynamic = 11.0146 W

      Instruction Fetch Unit:
        Area = 7.57986 mm^2
        Peak Dynamic = 11.6996 W
        Subthreshold Leakage = 1.0522 W
        Subthreshold Leakage with power gating = 0.455066 W
        Gate Leakage = 0.0712372 W
        Runtime Dynamic = 0.912406 W

          Instruction Cache:
            Area = 4.86613 mm^2
            Peak Dynamic = 9.16413 W
            Subthreshold Leakage = 0.486629 W
            Subthreshold Leakage with power gating = 0.22691 W
            Gate Leakage = 0.0421203 W
            Runtime Dynamic = 0.022054 W

          Branch Target Buffer:
            Area = 0.64954 mm^2
            Peak Dynamic = 0.177867 W
            Subthreshold Leakage = 0.0811682 W
            Subthreshold Leakage with power gating = 0.0435357 W
            Gate Leakage = 0.00272758 W
            Runtime Dynamic = 0.0778952 W

          Branch Predictor:
            Area = 0.138516 mm^2
            Peak Dynamic = 0.0597838 W
            Subthreshold Leakage = 0.0199703 W
            Subthreshold Leakage with power gating = 0.0103282 W
            Gate Leakage = 0.000757657 W
            Runtime Dynamic = 0.0253695 W

              Global Predictor:
                Area = 0.0435221 mm^2
                Peak Dynamic = 0.0168831 W
                Subthreshold Leakage = 0.00759719 W
                Subthreshold Leakage with power gating = 0.0039236 W
                Gate Leakage = 0.000278362 W
                Runtime Dynamic = 0.00792343 W

              Local Predictor:
              L1_Local Predictor:
                Area = 0.0257064 mm^2
                Peak Dynamic = 0.0142575 W
                Subthreshold Leakage = 0.00384344 W
                Subthreshold Leakage with power gating = 0.00198631 W
                Gate Leakage = 0.000154548 W
                Runtime Dynamic = 0.00684739 W

              L2_Local Predictor:
                Area = 0.0151917 mm^2
                Peak Dynamic = 0.00527447 W
                Subthreshold Leakage = 0.00181347 W
                Subthreshold Leakage with power gating = 0.000957045 W
                Gate Leakage = 8.00196e-05 W
                Runtime Dynamic = 0.00262125 W

              Chooser:
                Area = 0.0435221 mm^2
                Peak Dynamic = 0.0168831 W
                Subthreshold Leakage = 0.00759719 W
                Subthreshold Leakage with power gating = 0.0039236 W
                Gate Leakage = 0.000278362 W
                Runtime Dynamic = 0.00792343 W

              RAS:
                Area = 0.0105732 mm^2
                Peak Dynamic = 0.0117602 W
                Subthreshold Leakage = 0.000932505 W
                Subthreshold Leakage with power gating = 0.000494733 W
                Gate Leakage = 4.63858e-05 W
                Runtime Dynamic = 0.00267521 W

          Instruction Buffer:
            Area = 0.0226323 mm^2
            Peak Dynamic = 0.606827 W
            Subthreshold Leakage = 0.00151885 W
            Subthreshold Leakage with power gating = 0.000701682 W
            Gate Leakage = 6.83558e-05 W
            Runtime Dynamic = 0.179028 W

          Instruction Decoder:
            Area = 1.85799 mm^2
            Peak Dynamic = 1.37404 W
            Subthreshold Leakage = 0.442943 W
            Subthreshold Leakage with power gating = 0.166104 W
            Gate Leakage = 0.0222493 W
            Runtime Dynamic = 0.608059 W

      Renaming Unit:
        Area = 0.369768 mm^2
        Peak Dynamic = 4.56169 W
        Subthreshold Leakage = 0.070483 W
        Subthreshold Leakage with power gating = 0.0362779 W
        Gate Leakage = 0.00863632 W
        Runtime Dynamic = 0.400401 W

          Int Front End RAT:
            Area = 0.114751 mm^2
            Peak Dynamic = 0.86945 W
            Subthreshold Leakage = 0.00611897 W
            Subthreshold Leakage with power gating = 0.00348781 W
            Gate Leakage = 0.00038343 W
            Runtime Dynamic = 0.358061 W

          FP Front End RAT:
            Area = 0.168486 mm^2
            Peak Dynamic = 3.33511 W
            Subthreshold Leakage = 0.0437281 W
            Subthreshold Leakage with power gating = 0.024925 W
            Gate Leakage = 0.00489731 W
            Runtime Dynamic = 0.00673833 W

          Free List:
            Area = 0.0414755 mm^2
            Peak Dynamic = 0.0401324 W
            Subthreshold Leakage = 0.000670426 W
            Subthreshold Leakage with power gating = 0.000377987 W
            Gate Leakage = 4.15911e-05 W
            Runtime Dynamic = 0.035601 W

      Load Store Unit:
        Area = 8.80969 mm^2
        Peak Dynamic = 9.12379 W
        Subthreshold Leakage = 0.591622 W
        Subthreshold Leakage with power gating = 0.283406 W
        Gate Leakage = 0.0351387 W
        Runtime Dynamic = 4.59832 W

          Data Cache:
            Area = 6.84535 mm^2
            Peak Dynamic = 8.0749 W
            Subthreshold Leakage = 0.527675 W
            Subthreshold Leakage with power gating = 0.25085 W
            Gate Leakage = 0.0279261 W
            Runtime Dynamic = 3.28613 W

          LoadQ:
            Area = 0.0836782 mm^2
            Peak Dynamic = 0.221218 W
            Subthreshold Leakage = 0.00941961 W
            Subthreshold Leakage with power gating = 0.00536918 W
            Gate Leakage = 0.00059896 W
            Runtime Dynamic = 0.221218 W

          StoreQ:
            Area = 0.322079 mm^2
            Peak Dynamic = 0.545487 W
            Subthreshold Leakage = 0.0345621 W
            Subthreshold Leakage with power gating = 0.0197004 W
            Gate Leakage = 0.00329971 W
            Runtime Dynamic = 1.09097 W

      Memory Management Unit:
        Area = 0.434579 mm^2
        Peak Dynamic = 0.893182 W
        Subthreshold Leakage = 0.0769113 W
        Subthreshold Leakage with power gating = 0.0399462 W
        Gate Leakage = 0.00813591 W
        Runtime Dynamic = 0.195345 W

          Itlb:
            Area = 0.301552 mm^2
            Peak Dynamic = 0.399995 W
            Subthreshold Leakage = 0.0413758 W
            Subthreshold Leakage with power gating = 0.0235842 W
            Gate Leakage = 0.00393464 W
            Runtime Dynamic = 0.00170607 W

          Dtlb:
            Area = 0.0879726 mm^2
            Peak Dynamic = 0.193595 W
            Subthreshold Leakage = 0.0155699 W
            Subthreshold Leakage with power gating = 0.00887485 W
            Gate Leakage = 0.00088729 W
            Runtime Dynamic = 0.193639 W

      Execution Unit:
        Area = 8.2042 mm^2
        Peak Dynamic = 6.26528 W
        Subthreshold Leakage = 1.83518 W
        Subthreshold Leakage with power gating = 0.709678 W
        Gate Leakage = 0.122718 W
        Runtime Dynamic = 4.90775 W

          Register Files:
            Area = 0.570804 mm^2
            Peak Dynamic = 0.184736 W
            Subthreshold Leakage = 0.0101387 W
            Subthreshold Leakage with power gating = 0.00423643 W
            Gate Leakage = 0.000622708 W
            Runtime Dynamic = 0.211411 W

              Integer RF:
                Area = 0.362673 mm^2
                Peak Dynamic = 0.182804 W
                Subthreshold Leakage = 0.00614175 W
                Subthreshold Leakage with power gating = 0.00246675 W
                Gate Leakage = 0.00038992 W
                Runtime Dynamic = 0.18623 W

              Floating Point RF:
                Area = 0.208131 mm^2
                Peak Dynamic = 0.00193151 W
                Subthreshold Leakage = 0.00399698 W
                Subthreshold Leakage with power gating = 0.00176968 W
                Gate Leakage = 0.000232788 W
                Runtime Dynamic = 0.0251812 W

          Instruction Scheduler:
            Area = 2.17927 mm^2
            Peak Dynamic = 4.84781 W
            Subthreshold Leakage = 0.114878 W
            Subthreshold Leakage with power gating = 0.0641291 W
            Gate Leakage = 0.00730101 W
            Runtime Dynamic = 2.58901 W

              Instruction Window:
                Area = 1.00996 mm^2
                Peak Dynamic = 2.07911 W
                Subthreshold Leakage = 0.0800117 W
                Subthreshold Leakage with power gating = 0.0455351 W
                Gate Leakage = 0.00529112 W
                Runtime Dynamic = 1.20286 W

              FP Instruction Window:
                Area = 0.328073 mm^2
                Peak Dynamic = 1.20978 W
                Subthreshold Leakage = 0.017004 W
                Subthreshold Leakage with power gating = 0.00962066 W
                Gate Leakage = 0.00115349 W
                Runtime Dynamic = 0.694638 W

              ROB:
                Area = 0.841232 mm^2
                Peak Dynamic = 1.55892 W
                Subthreshold Leakage = 0.0178624 W
                Subthreshold Leakage with power gating = 0.00897339 W
                Gate Leakage = 0.000856399 W
                Runtime Dynamic = 0.691515 W

          Integer ALUs (Count: 6 ):
            Area = 0.47087 mm^2
            Peak Dynamic = 0.685055 W
            Subthreshold Leakage = 0.40222 W
            Subthreshold Leakage with power gating = 0.150833 W
            Gate Leakage = 0.0265291 W
            Runtime Dynamic = 0.595652 W

          Floating Point Units (FPUs) (Count: 2 ):
            Area = 4.6585 mm^2
            Peak Dynamic = 0.0102239 W
            Subthreshold Leakage = 0.994829 W
            Subthreshold Leakage with power gating = 0.373061 W
            Gate Leakage = 0.0656156 W
            Runtime Dynamic = 0.30853 W

          Complex ALUs (Mul/Div) (Count: 1 ):
            Area = 0.235435 mm^2
            Peak Dynamic = 0.00189883 W
            Subthreshold Leakage = 0.20111 W
            Subthreshold Leakage with power gating = 0.0754163 W
            Gate Leakage = 0.0132646 W
            Runtime Dynamic = 0.20418 W

          Results Broadcast Bus:
            Area Overhead = 0.0442632 mm^2
            Peak Dynamic = 0.44225 W
            Subthreshold Leakage = 0.0920413 W
            Subthreshold Leakage with power gating = 0.0345155 W
            Gate Leakage = 0.00607074 W
            Runtime Dynamic = 0.998964 W

    L2
    Area = 22.2273 mm^2
    Peak Dynamic = 0.0052891 W
    Subthreshold Leakage = 4.28281 W
    Subthreshold Leakage with power gating = 1.92539 W
    Gate Leakage = 0.0518439 W
    Runtime Dynamic = 0.000378886 W

*****************************************************************************************
Core:
      Area = 52.0221 mm^2
      Peak Dynamic = 32.362 W
      Subthreshold Leakage = 9.78705 W
      Subthreshold Leakage with power gating = 4.15395 W
      Gate Leakage = 0.421566 W
      Runtime Dynamic = 10.8131 W

      Instruction Fetch Unit:
        Area = 7.57986 mm^2
        Peak Dynamic = 11.6996 W
        Subthreshold Leakage = 1.0522 W
        Subthreshold Leakage with power gating = 0.455066 W
        Gate Leakage = 0.0712372 W
        Runtime Dynamic = 0.89502 W

          Instruction Cache:
            Area = 4.86613 mm^2
            Peak Dynamic = 9.16413 W
            Subthreshold Leakage = 0.486629 W
            Subthreshold Leakage with power gating = 0.22691 W
            Gate Leakage = 0.0421203 W
            Runtime Dynamic = 0.0220546 W

          Branch Target Buffer:
            Area = 0.64954 mm^2
            Peak Dynamic = 0.177867 W
            Subthreshold Leakage = 0.0811682 W
            Subthreshold Leakage with power gating = 0.0435357 W
            Gate Leakage = 0.00272758 W
            Runtime Dynamic = 0.0763599 W

          Branch Predictor:
            Area = 0.138516 mm^2
            Peak Dynamic = 0.0597838 W
            Subthreshold Leakage = 0.0199703 W
            Subthreshold Leakage with power gating = 0.0103282 W
            Gate Leakage = 0.000757657 W
            Runtime Dynamic = 0.0248699 W

              Global Predictor:
                Area = 0.0435221 mm^2
                Peak Dynamic = 0.0168831 W
                Subthreshold Leakage = 0.00759719 W
                Subthreshold Leakage with power gating = 0.0039236 W
                Gate Leakage = 0.000278362 W
                Runtime Dynamic = 0.00776723 W

              Local Predictor:
              L1_Local Predictor:
                Area = 0.0257064 mm^2
                Peak Dynamic = 0.0142575 W
                Subthreshold Leakage = 0.00384344 W
                Subthreshold Leakage with power gating = 0.00198631 W
                Gate Leakage = 0.000154548 W
                Runtime Dynamic = 0.0067124 W

              L2_Local Predictor:
                Area = 0.0151917 mm^2
                Peak Dynamic = 0.00527447 W
                Subthreshold Leakage = 0.00181347 W
                Subthreshold Leakage with power gating = 0.000957045 W
                Gate Leakage = 8.00196e-05 W
                Runtime Dynamic = 0.00256957 W

              Chooser:
                Area = 0.0435221 mm^2
                Peak Dynamic = 0.0168831 W
                Subthreshold Leakage = 0.00759719 W
                Subthreshold Leakage with power gating = 0.0039236 W
                Gate Leakage = 0.000278362 W
                Runtime Dynamic = 0.00776723 W

              RAS:
                Area = 0.0105732 mm^2
                Peak Dynamic = 0.0117602 W
                Subthreshold Leakage = 0.000932505 W
                Subthreshold Leakage with power gating = 0.000494733 W
                Gate Leakage = 4.63858e-05 W
                Runtime Dynamic = 0.00262303 W

          Instruction Buffer:
            Area = 0.0226323 mm^2
            Peak Dynamic = 0.606827 W
            Subthreshold Leakage = 0.00151885 W
            Subthreshold Leakage with power gating = 0.000701682 W
            Gate Leakage = 6.83558e-05 W
            Runtime Dynamic = 0.175536 W

          Instruction Decoder:
            Area = 1.85799 mm^2
            Peak Dynamic = 1.37404 W
            Subthreshold Leakage = 0.442943 W
            Subthreshold Leakage with power gating = 0.166104 W
            Gate Leakage = 0.0222493 W
            Runtime Dynamic = 0.596199 W

      Renaming Unit:
        Area = 0.369768 mm^2
        Peak Dynamic = 4.56169 W
        Subthreshold Leakage = 0.070483 W
        Subthreshold Leakage with power gating = 0.0362779 W
        Gate Leakage = 0.00863632 W
        Runtime Dynamic = 0.392725 W

          Int Front End RAT:
            Area = 0.114751 mm^2
            Peak Dynamic = 0.86945 W
            Subthreshold Leakage = 0.00611897 W
            Subthreshold Leakage with power gating = 0.00348781 W
            Gate Leakage = 0.00038343 W
            Runtime Dynamic = 0.351078 W

          FP Front End RAT:
            Area = 0.168486 mm^2
            Peak Dynamic = 3.33511 W
            Subthreshold Leakage = 0.0437281 W
            Subthreshold Leakage with power gating = 0.024925 W
            Gate Leakage = 0.00489731 W
            Runtime Dynamic = 0.00673833 W

          Free List:
            Area = 0.0414755 mm^2
            Peak Dynamic = 0.0401324 W
            Subthreshold Leakage = 0.000670426 W
            Subthreshold Leakage with power gating = 0.000377987 W
            Gate Leakage = 4.15911e-05 W
            Runtime Dynamic = 0.0349082 W

      Load Store Unit:
        Area = 8.80969 mm^2
        Peak Dynamic = 8.97085 W
        Subthreshold Leakage = 0.591622 W
        Subthreshold Leakage with power gating = 0.283406 W
        Gate Leakage = 0.0351387 W
        Runtime Dynamic = 4.50915 W

          Data Cache:
            Area = 6.84535 mm^2
            Peak Dynamic = 7.9423 W
            Subthreshold Leakage = 0.527675 W
            Subthreshold Leakage with power gating = 0.25085 W
            Gate Leakage = 0.0279261 W
            Runtime Dynamic = 3.2224 W

          LoadQ:
            Area = 0.0836782 mm^2
            Peak Dynamic = 0.216928 W
            Subthreshold Leakage = 0.00941961 W
            Subthreshold Leakage with power gating = 0.00536918 W
            Gate Leakage = 0.00059896 W
            Runtime Dynamic = 0.216928 W

          StoreQ:
            Area = 0.322079 mm^2
            Peak Dynamic = 0.534909 W
            Subthreshold Leakage = 0.0345621 W
            Subthreshold Leakage with power gating = 0.0197004 W
            Gate Leakage = 0.00329971 W
            Runtime Dynamic = 1.06982 W

      Memory Management Unit:
        Area = 0.434579 mm^2
        Peak Dynamic = 0.886692 W
        Subthreshold Leakage = 0.0769113 W
        Subthreshold Leakage with power gating = 0.0399462 W
        Gate Leakage = 0.00813591 W
        Runtime Dynamic = 0.19159 W

          Itlb:
            Area = 0.301552 mm^2
            Peak Dynamic = 0.399995 W
            Subthreshold Leakage = 0.0413758 W
            Subthreshold Leakage with power gating = 0.0235842 W
            Gate Leakage = 0.00393464 W
            Runtime Dynamic = 0.00170612 W

          Dtlb:
            Area = 0.0879726 mm^2
            Peak Dynamic = 0.189841 W
            Subthreshold Leakage = 0.0155699 W
            Subthreshold Leakage with power gating = 0.00887485 W
            Gate Leakage = 0.00088729 W
            Runtime Dynamic = 0.189884 W

      Execution Unit:
        Area = 8.2042 mm^2
        Peak Dynamic = 6.23793 W
        Subthreshold Leakage = 1.83518 W
        Subthreshold Leakage with power gating = 0.709678 W
        Gate Leakage = 0.122718 W
        Runtime Dynamic = 4.82425 W

          Register Files:
            Area = 0.570804 mm^2
            Peak Dynamic = 0.181184 W
            Subthreshold Leakage = 0.0101387 W
            Subthreshold Leakage with power gating = 0.00423643 W
            Gate Leakage = 0.000622708 W
            Runtime Dynamic = 0.207288 W

              Integer RF:
                Area = 0.362673 mm^2
                Peak Dynamic = 0.179252 W
                Subthreshold Leakage = 0.00614175 W
                Subthreshold Leakage with power gating = 0.00246675 W
                Gate Leakage = 0.00038992 W
                Runtime Dynamic = 0.182598 W

              Floating Point RF:
                Area = 0.208131 mm^2
                Peak Dynamic = 0.00193151 W
                Subthreshold Leakage = 0.00399698 W
                Subthreshold Leakage with power gating = 0.00176968 W
                Gate Leakage = 0.000232788 W
                Runtime Dynamic = 0.02469 W

          Instruction Scheduler:
            Area = 2.17927 mm^2
            Peak Dynamic = 4.84781 W
            Subthreshold Leakage = 0.114878 W
            Subthreshold Leakage with power gating = 0.0641291 W
            Gate Leakage = 0.00730101 W
            Runtime Dynamic = 2.53855 W

              Instruction Window:
                Area = 1.00996 mm^2
                Peak Dynamic = 2.07911 W
                Subthreshold Leakage = 0.0800117 W
                Subthreshold Leakage with power gating = 0.0455351 W
                Gate Leakage = 0.00529112 W
                Runtime Dynamic = 1.1794 W

              FP Instruction Window:
                Area = 0.328073 mm^2
                Peak Dynamic = 1.20978 W
                Subthreshold Leakage = 0.017004 W
                Subthreshold Leakage with power gating = 0.00962066 W
                Gate Leakage = 0.00115349 W
                Runtime Dynamic = 0.681089 W

              ROB:
                Area = 0.841232 mm^2
                Peak Dynamic = 1.55892 W
                Subthreshold Leakage = 0.0178624 W
                Subthreshold Leakage with power gating = 0.00897339 W
                Gate Leakage = 0.000856399 W
                Runtime Dynamic = 0.678059 W

          Integer ALUs (Count: 6 ):
            Area = 0.47087 mm^2
            Peak Dynamic = 0.671661 W
            Subthreshold Leakage = 0.40222 W
            Subthreshold Leakage with power gating = 0.150833 W
            Gate Leakage = 0.0265291 W
            Runtime Dynamic = 0.586045 W

          Floating Point Units (FPUs) (Count: 2 ):
            Area = 4.6585 mm^2
            Peak Dynamic = 0.0102239 W
            Subthreshold Leakage = 0.994829 W
            Subthreshold Leakage with power gating = 0.373061 W
            Gate Leakage = 0.0656156 W
            Runtime Dynamic = 0.30853 W

          Complex ALUs (Mul/Div) (Count: 1 ):
            Area = 0.235435 mm^2
            Peak Dynamic = 0.00189883 W
            Subthreshold Leakage = 0.20111 W
            Subthreshold Leakage with power gating = 0.0754163 W
            Gate Leakage = 0.0132646 W
            Runtime Dynamic = 0.20418 W

          Results Broadcast Bus:
            Area Overhead = 0.0442632 mm^2
            Peak Dynamic = 0.433667 W
            Subthreshold Leakage = 0.0920413 W
            Subthreshold Leakage with power gating = 0.0345155 W
            Gate Leakage = 0.00607074 W
            Runtime Dynamic = 0.979655 W

    L2
    Area = 22.2273 mm^2
    Peak Dynamic = 0.00516054 W
    Subthreshold Leakage = 4.28281 W
    Subthreshold Leakage with power gating = 1.92539 W
    Gate Leakage = 0.0518439 W
    Runtime Dynamic = 0.000367757 W

*****************************************************************************************
Core:
      Area = 52.0221 mm^2
      Peak Dynamic = 32.4841 W
      Subthreshold Leakage = 9.78705 W
      Subthreshold Leakage with power gating = 4.15395 W
      Gate Leakage = 0.421566 W
      Runtime Dynamic = 10.9449 W

      Instruction Fetch Unit:
        Area = 7.57986 mm^2
        Peak Dynamic = 11.6996 W
        Subthreshold Leakage = 1.0522 W
        Subthreshold Leakage with power gating = 0.455066 W
        Gate Leakage = 0.0712372 W
        Runtime Dynamic = 0.906391 W

          Instruction Cache:
            Area = 4.86613 mm^2
            Peak Dynamic = 9.16413 W
            Subthreshold Leakage = 0.486629 W
            Subthreshold Leakage with power gating = 0.22691 W
            Gate Leakage = 0.0421203 W
            Runtime Dynamic = 0.0220553 W

          Branch Target Buffer:
            Area = 0.64954 mm^2
            Peak Dynamic = 0.177867 W
            Subthreshold Leakage = 0.0811682 W
            Subthreshold Leakage with power gating = 0.0435357 W
            Gate Leakage = 0.00272758 W
            Runtime Dynamic = 0.0773639 W

          Branch Predictor:
            Area = 0.138516 mm^2
            Peak Dynamic = 0.0597838 W
            Subthreshold Leakage = 0.0199703 W
            Subthreshold Leakage with power gating = 0.0103282 W
            Gate Leakage = 0.000757657 W
            Runtime Dynamic = 0.0251966 W

              Global Predictor:
                Area = 0.0435221 mm^2
                Peak Dynamic = 0.0168831 W
                Subthreshold Leakage = 0.00759719 W
                Subthreshold Leakage with power gating = 0.0039236 W
                Gate Leakage = 0.000278362 W
                Runtime Dynamic = 0.00786937 W

              Local Predictor:
              L1_Local Predictor:
                Area = 0.0257064 mm^2
                Peak Dynamic = 0.0142575 W
                Subthreshold Leakage = 0.00384344 W
                Subthreshold Leakage with power gating = 0.00198631 W
                Gate Leakage = 0.000154548 W
                Runtime Dynamic = 0.00680067 W

              L2_Local Predictor:
                Area = 0.0151917 mm^2
                Peak Dynamic = 0.00527447 W
                Subthreshold Leakage = 0.00181347 W
                Subthreshold Leakage with power gating = 0.000957045 W
                Gate Leakage = 8.00196e-05 W
                Runtime Dynamic = 0.00260337 W

              Chooser:
                Area = 0.0435221 mm^2
                Peak Dynamic = 0.0168831 W
                Subthreshold Leakage = 0.00759719 W
                Subthreshold Leakage with power gating = 0.0039236 W
                Gate Leakage = 0.000278362 W
                Runtime Dynamic = 0.00786937 W

              RAS:
                Area = 0.0105732 mm^2
                Peak Dynamic = 0.0117602 W
                Subthreshold Leakage = 0.000932505 W
                Subthreshold Leakage with power gating = 0.000494733 W
                Gate Leakage = 4.63858e-05 W
                Runtime Dynamic = 0.00265716 W

          Instruction Buffer:
            Area = 0.0226323 mm^2
            Peak Dynamic = 0.606827 W
            Subthreshold Leakage = 0.00151885 W
            Subthreshold Leakage with power gating = 0.000701682 W
            Gate Leakage = 6.83558e-05 W
            Runtime Dynamic = 0.17782 W

          Instruction Decoder:
            Area = 1.85799 mm^2
            Peak Dynamic = 1.37404 W
            Subthreshold Leakage = 0.442943 W
            Subthreshold Leakage with power gating = 0.166104 W
            Gate Leakage = 0.0222493 W
            Runtime Dynamic = 0.603955 W

      Renaming Unit:
        Area = 0.369768 mm^2
        Peak Dynamic = 4.56169 W
        Subthreshold Leakage = 0.070483 W
        Subthreshold Leakage with power gating = 0.0362779 W
        Gate Leakage = 0.00863632 W
        Runtime Dynamic = 0.397745 W

          Int Front End RAT:
            Area = 0.114751 mm^2
            Peak Dynamic = 0.86945 W
            Subthreshold Leakage = 0.00611897 W
            Subthreshold Leakage with power gating = 0.00348781 W
            Gate Leakage = 0.00038343 W
            Runtime Dynamic = 0.355645 W

          FP Front End RAT:
            Area = 0.168486 mm^2
            Peak Dynamic = 3.33511 W
            Subthreshold Leakage = 0.0437281 W
            Subthreshold Leakage with power gating = 0.024925 W
            Gate Leakage = 0.00489731 W
            Runtime Dynamic = 0.00673833 W

          Free List:
            Area = 0.0414755 mm^2
            Peak Dynamic = 0.0401324 W
            Subthreshold Leakage = 0.000670426 W
            Subthreshold Leakage with power gating = 0.000377987 W
            Gate Leakage = 4.15911e-05 W
            Runtime Dynamic = 0.0353613 W

      Load Store Unit:
        Area = 8.80969 mm^2
        Peak Dynamic = 9.07087 W
        Subthreshold Leakage = 0.591622 W
        Subthreshold Leakage with power gating = 0.283406 W
        Gate Leakage = 0.0351387 W
        Runtime Dynamic = 4.56746 W

          Data Cache:
            Area = 6.84535 mm^2
            Peak Dynamic = 8.02901 W
            Subthreshold Leakage = 0.527675 W
            Subthreshold Leakage with power gating = 0.25085 W
            Gate Leakage = 0.0279261 W
            Runtime Dynamic = 3.26408 W

          LoadQ:
            Area = 0.0836782 mm^2
            Peak Dynamic = 0.219734 W
            Subthreshold Leakage = 0.00941961 W
            Subthreshold Leakage with power gating = 0.00536918 W
            Gate Leakage = 0.00059896 W
            Runtime Dynamic = 0.219734 W

          StoreQ:
            Area = 0.322079 mm^2
            Peak Dynamic = 0.541826 W
            Subthreshold Leakage = 0.0345621 W
            Subthreshold Leakage with power gating = 0.0197004 W
            Gate Leakage = 0.00329971 W
            Runtime Dynamic = 1.08365 W

      Memory Management Unit:
        Area = 0.434579 mm^2
        Peak Dynamic = 0.890936 W
        Subthreshold Leakage = 0.0769113 W
        Subthreshold Leakage with power gating = 0.0399462 W
        Gate Leakage = 0.00813591 W
        Runtime Dynamic = 0.194045 W

          Itlb:
            Area = 0.301552 mm^2
            Peak Dynamic = 0.399995 W
            Subthreshold Leakage = 0.0413758 W
            Subthreshold Leakage with power gating = 0.0235842 W
            Gate Leakage = 0.00393464 W
            Runtime Dynamic = 0.00170616 W

          Dtlb:
            Area = 0.0879726 mm^2
            Peak Dynamic = 0.192296 W
            Subthreshold Leakage = 0.0155699 W
            Subthreshold Leakage with power gating = 0.00887485 W
            Gate Leakage = 0.00088729 W
            Runtime Dynamic = 0.192339 W

      Execution Unit:
        Area = 8.2042 mm^2
        Peak Dynamic = 6.25581 W
        Subthreshold Leakage = 1.83518 W
        Subthreshold Leakage with power gating = 0.709678 W
        Gate Leakage = 0.122718 W
        Runtime Dynamic = 4.87886 W

          Register Files:
            Area = 0.570804 mm^2
            Peak Dynamic = 0.183506 W
            Subthreshold Leakage = 0.0101387 W
            Subthreshold Leakage with power gating = 0.00423643 W
            Gate Leakage = 0.000622708 W
            Runtime Dynamic = 0.209985 W

              Integer RF:
                Area = 0.362673 mm^2
                Peak Dynamic = 0.181575 W
                Subthreshold Leakage = 0.00614175 W
                Subthreshold Leakage with power gating = 0.00246675 W
                Gate Leakage = 0.00038992 W
                Runtime Dynamic = 0.184973 W

              Floating Point RF:
                Area = 0.208131 mm^2
                Peak Dynamic = 0.00193151 W
                Subthreshold Leakage = 0.00399698 W
                Subthreshold Leakage with power gating = 0.00176968 W
                Gate Leakage = 0.000232788 W
                Runtime Dynamic = 0.0250112 W

          Instruction Scheduler:
            Area = 2.17927 mm^2
            Peak Dynamic = 4.84781 W
            Subthreshold Leakage = 0.114878 W
            Subthreshold Leakage with power gating = 0.0641291 W
            Gate Leakage = 0.00730101 W
            Runtime Dynamic = 2.57155 W

              Instruction Window:
                Area = 1.00996 mm^2
                Peak Dynamic = 2.07911 W
                Subthreshold Leakage = 0.0800117 W
                Subthreshold Leakage with power gating = 0.0455351 W
                Gate Leakage = 0.00529112 W
                Runtime Dynamic = 1.19474 W

              FP Instruction Window:
                Area = 0.328073 mm^2
                Peak Dynamic = 1.20978 W
                Subthreshold Leakage = 0.017004 W
                Subthreshold Leakage with power gating = 0.00962066 W
                Gate Leakage = 0.00115349 W
                Runtime Dynamic = 0.68995 W

              ROB:
                Area = 0.841232 mm^2
                Peak Dynamic = 1.55892 W
                Subthreshold Leakage = 0.0178624 W
                Subthreshold Leakage with power gating = 0.00897339 W
                Gate Leakage = 0.000856399 W
                Runtime Dynamic = 0.686859 W

          Integer ALUs (Count: 6 ):
            Area = 0.47087 mm^2
            Peak Dynamic = 0.680419 W
            Subthreshold Leakage = 0.40222 W
            Subthreshold Leakage with power gating = 0.150833 W
            Gate Leakage = 0.0265291 W
            Runtime Dynamic = 0.592328 W

          Floating Point Units (FPUs) (Count: 2 ):
            Area = 4.6585 mm^2
            Peak Dynamic = 0.0102239 W
            Subthreshold Leakage = 0.994829 W
            Subthreshold Leakage with power gating = 0.373061 W
            Gate Leakage = 0.0656156 W
            Runtime Dynamic = 0.30853 W

          Complex ALUs (Mul/Div) (Count: 1 ):
            Area = 0.235435 mm^2
            Peak Dynamic = 0.00189883 W
            Subthreshold Leakage = 0.20111 W
            Subthreshold Leakage with power gating = 0.0754163 W
            Gate Leakage = 0.0132646 W
            Runtime Dynamic = 0.20418 W

          Results Broadcast Bus:
            Area Overhead = 0.0442632 mm^2
            Peak Dynamic = 0.439279 W
            Subthreshold Leakage = 0.0920413 W
            Subthreshold Leakage with power gating = 0.0345155 W
            Gate Leakage = 0.00607074 W
            Runtime Dynamic = 0.992283 W

    L2
    Area = 22.2273 mm^2
    Peak Dynamic = 0.00518809 W
    Subthreshold Leakage = 4.28281 W
    Subthreshold Leakage with power gating = 1.92539 W
    Gate Leakage = 0.0518439 W
    Runtime Dynamic = 0.00037311 W

*****************************************************************************************
Core:
      Area = 52.0221 mm^2
      Peak Dynamic = 31.2971 W
      Subthreshold Leakage = 9.78705 W
      Subthreshold Leakage with power gating = 4.15395 W
      Gate Leakage = 0.421566 W
      Runtime Dynamic = 9.66505 W

      Instruction Fetch Unit:
        Area = 7.57986 mm^2
        Peak Dynamic = 11.6996 W
        Subthreshold Leakage = 1.0522 W
        Subthreshold Leakage with power gating = 0.455066 W
        Gate Leakage = 0.0712372 W
        Runtime Dynamic = 0.795949 W

          Instruction Cache:
            Area = 4.86613 mm^2
            Peak Dynamic = 9.16413 W
            Subthreshold Leakage = 0.486629 W
            Subthreshold Leakage with power gating = 0.22691 W
            Gate Leakage = 0.0421203 W
            Runtime Dynamic = 0.0220484 W

          Branch Target Buffer:
            Area = 0.64954 mm^2
            Peak Dynamic = 0.177867 W
            Subthreshold Leakage = 0.0811682 W
            Subthreshold Leakage with power gating = 0.0435357 W
            Gate Leakage = 0.00272758 W
            Runtime Dynamic = 0.0676125 W

          Branch Predictor:
            Area = 0.138516 mm^2
            Peak Dynamic = 0.0597838 W
            Subthreshold Leakage = 0.0199703 W
            Subthreshold Leakage with power gating = 0.0103282 W
            Gate Leakage = 0.000757657 W
            Runtime Dynamic = 0.0220242 W

              Global Predictor:
                Area = 0.0435221 mm^2
                Peak Dynamic = 0.0168831 W
                Subthreshold Leakage = 0.00759719 W
                Subthreshold Leakage with power gating = 0.0039236 W
                Gate Leakage = 0.000278362 W
                Runtime Dynamic = 0.00687748 W

              Local Predictor:
              L1_Local Predictor:
                Area = 0.0257064 mm^2
                Peak Dynamic = 0.0142575 W
                Subthreshold Leakage = 0.00384344 W
                Subthreshold Leakage with power gating = 0.00198631 W
                Gate Leakage = 0.000154548 W
                Runtime Dynamic = 0.00594348 W

              L2_Local Predictor:
                Area = 0.0151917 mm^2
                Peak Dynamic = 0.00527447 W
                Subthreshold Leakage = 0.00181347 W
                Subthreshold Leakage with power gating = 0.000957045 W
                Gate Leakage = 8.00196e-05 W
                Runtime Dynamic = 0.00227523 W

              Chooser:
                Area = 0.0435221 mm^2
                Peak Dynamic = 0.0168831 W
                Subthreshold Leakage = 0.00759719 W
                Subthreshold Leakage with power gating = 0.0039236 W
                Gate Leakage = 0.000278362 W
                Runtime Dynamic = 0.00687748 W

              RAS:
                Area = 0.0105732 mm^2
                Peak Dynamic = 0.0117602 W
                Subthreshold Leakage = 0.000932505 W
                Subthreshold Leakage with power gating = 0.000494733 W
                Gate Leakage = 4.63858e-05 W
                Runtime Dynamic = 0.00232573 W

          Instruction Buffer:
            Area = 0.0226323 mm^2
            Peak Dynamic = 0.606827 W
            Subthreshold Leakage = 0.00151885 W
            Subthreshold Leakage with power gating = 0.000701682 W
            Gate Leakage = 6.83558e-05 W
            Runtime Dynamic = 0.15564 W

          Instruction Decoder:
            Area = 1.85799 mm^2
            Peak Dynamic = 1.37404 W
            Subthreshold Leakage = 0.442943 W
            Subthreshold Leakage with power gating = 0.166104 W
            Gate Leakage = 0.0222493 W
            Runtime Dynamic = 0.528624 W

      Renaming Unit:
        Area = 0.369768 mm^2
        Peak Dynamic = 4.56169 W
        Subthreshold Leakage = 0.070483 W
        Subthreshold Leakage with power gating = 0.0362779 W
        Gate Leakage = 0.00863632 W
        Runtime Dynamic = 0.348989 W

          Int Front End RAT:
            Area = 0.114751 mm^2
            Peak Dynamic = 0.86945 W
            Subthreshold Leakage = 0.00611897 W
            Subthreshold Leakage with power gating = 0.00348781 W
            Gate Leakage = 0.00038343 W
            Runtime Dynamic = 0.31129 W

          FP Front End RAT:
            Area = 0.168486 mm^2
            Peak Dynamic = 3.33511 W
            Subthreshold Leakage = 0.0437281 W
            Subthreshold Leakage with power gating = 0.024925 W
            Gate Leakage = 0.00489731 W
            Runtime Dynamic = 0.00673833 W

          Free List:
            Area = 0.0414755 mm^2
            Peak Dynamic = 0.0401324 W
            Subthreshold Leakage = 0.000670426 W
            Subthreshold Leakage with power gating = 0.000377987 W
            Gate Leakage = 4.15911e-05 W
            Runtime Dynamic = 0.0309608 W

      Load Store Unit:
        Area = 8.80969 mm^2
        Peak Dynamic = 8.09943 W
        Subthreshold Leakage = 0.591622 W
        Subthreshold Leakage with power gating = 0.283406 W
        Gate Leakage = 0.0351387 W
        Runtime Dynamic = 4.0011 W

          Data Cache:
            Area = 6.84535 mm^2
            Peak Dynamic = 7.18677 W
            Subthreshold Leakage = 0.527675 W
            Subthreshold Leakage with power gating = 0.25085 W
            Gate Leakage = 0.0279261 W
            Runtime Dynamic = 2.85934 W

          LoadQ:
            Area = 0.0836782 mm^2
            Peak Dynamic = 0.192485 W
            Subthreshold Leakage = 0.00941961 W
            Subthreshold Leakage with power gating = 0.00536918 W
            Gate Leakage = 0.00059896 W
            Runtime Dynamic = 0.192486 W

          StoreQ:
            Area = 0.322079 mm^2
            Peak Dynamic = 0.474636 W
            Subthreshold Leakage = 0.0345621 W
            Subthreshold Leakage with power gating = 0.0197004 W
            Gate Leakage = 0.00329971 W
            Runtime Dynamic = 0.949273 W

      Memory Management Unit:
        Area = 0.434579 mm^2
        Peak Dynamic = 0.849711 W
        Subthreshold Leakage = 0.0769113 W
        Subthreshold Leakage with power gating = 0.0399462 W
        Gate Leakage = 0.00813591 W
        Runtime Dynamic = 0.170194 W

          Itlb:
            Area = 0.301552 mm^2
            Peak Dynamic = 0.399995 W
            Subthreshold Leakage = 0.0413758 W
            Subthreshold Leakage with power gating = 0.0235842 W
            Gate Leakage = 0.00393464 W
            Runtime Dynamic = 0.00170564 W

          Dtlb:
            Area = 0.0879726 mm^2
            Peak Dynamic = 0.16845 W
            Subthreshold Leakage = 0.0155699 W
            Subthreshold Leakage with power gating = 0.00887485 W
            Gate Leakage = 0.00088729 W
            Runtime Dynamic = 0.168488 W

      Execution Unit:
        Area = 8.2042 mm^2
        Peak Dynamic = 6.08209 W
        Subthreshold Leakage = 1.83518 W
        Subthreshold Leakage with power gating = 0.709678 W
        Gate Leakage = 0.122718 W
        Runtime Dynamic = 4.34845 W

          Register Files:
            Area = 0.570804 mm^2
            Peak Dynamic = 0.160948 W
            Subthreshold Leakage = 0.0101387 W
            Subthreshold Leakage with power gating = 0.00423643 W
            Gate Leakage = 0.000622708 W
            Runtime Dynamic = 0.183793 W

              Integer RF:
                Area = 0.362673 mm^2
                Peak Dynamic = 0.159016 W
                Subthreshold Leakage = 0.00614175 W
                Subthreshold Leakage with power gating = 0.00246675 W
                Gate Leakage = 0.00038992 W
                Runtime Dynamic = 0.161902 W

              Floating Point RF:
                Area = 0.208131 mm^2
                Peak Dynamic = 0.00193151 W
                Subthreshold Leakage = 0.00399698 W
                Subthreshold Leakage with power gating = 0.00176968 W
                Gate Leakage = 0.000232788 W
                Runtime Dynamic = 0.0218916 W

          Instruction Scheduler:
            Area = 2.17927 mm^2
            Peak Dynamic = 4.84781 W
            Subthreshold Leakage = 0.114878 W
            Subthreshold Leakage with power gating = 0.0641291 W
            Gate Leakage = 0.00730101 W
            Runtime Dynamic = 2.25101 W

              Instruction Window:
                Area = 1.00996 mm^2
                Peak Dynamic = 2.07911 W
                Subthreshold Leakage = 0.0800117 W
                Subthreshold Leakage with power gating = 0.0455351 W
                Gate Leakage = 0.00529112 W
                Runtime Dynamic = 1.04572 W

              FP Instruction Window:
                Area = 0.328073 mm^2
                Peak Dynamic = 1.20978 W
                Subthreshold Leakage = 0.017004 W
                Subthreshold Leakage with power gating = 0.00962066 W
                Gate Leakage = 0.00115349 W
                Runtime Dynamic = 0.603893 W

              ROB:
                Area = 0.841232 mm^2
                Peak Dynamic = 1.55892 W
                Subthreshold Leakage = 0.0178624 W
                Subthreshold Leakage with power gating = 0.00897339 W
                Gate Leakage = 0.000856399 W
                Runtime Dynamic = 0.601391 W

          Integer ALUs (Count: 6 ):
            Area = 0.47087 mm^2
            Peak Dynamic = 0.595357 W
            Subthreshold Leakage = 0.40222 W
            Subthreshold Leakage with power gating = 0.150833 W
            Gate Leakage = 0.0265291 W
            Runtime Dynamic = 0.531307 W

          Floating Point Units (FPUs) (Count: 2 ):
            Area = 4.6585 mm^2
            Peak Dynamic = 0.0102239 W
            Subthreshold Leakage = 0.994829 W
            Subthreshold Leakage with power gating = 0.373061 W
            Gate Leakage = 0.0656156 W
            Runtime Dynamic = 0.30853 W

          Complex ALUs (Mul/Div) (Count: 1 ):
            Area = 0.235435 mm^2
            Peak Dynamic = 0.00189883 W
            Subthreshold Leakage = 0.20111 W
            Subthreshold Leakage with power gating = 0.0754163 W
            Gate Leakage = 0.0132646 W
            Runtime Dynamic = 0.20418 W

          Results Broadcast Bus:
            Area Overhead = 0.0442632 mm^2
            Peak Dynamic = 0.384769 W
            Subthreshold Leakage = 0.0920413 W
            Subthreshold Leakage with power gating = 0.0345155 W
            Gate Leakage = 0.00607074 W
            Runtime Dynamic = 0.86963 W

    L2
    Area = 22.2273 mm^2
    Peak Dynamic = 0.00457287 W
    Subthreshold Leakage = 4.28281 W
    Subthreshold Leakage with power gating = 1.92539 W
    Gate Leakage = 0.0518439 W
    Runtime Dynamic = 0.000366386 W

*****************************************************************************************
Core:
      Area = 52.0221 mm^2
      Peak Dynamic = 32.5251 W
      Subthreshold Leakage = 9.78705 W
      Subthreshold Leakage with power gating = 4.15395 W
      Gate Leakage = 0.421566 W
      Runtime Dynamic = 10.989 W

      Instruction Fetch Unit:
        Area = 7.57986 mm^2
        Peak Dynamic = 11.6996 W
        Subthreshold Leakage = 1.0522 W
        Subthreshold Leakage with power gating = 0.455066 W
        Gate Leakage = 0.0712372 W
        Runtime Dynamic = 0.910196 W

          Instruction Cache:
            Area = 4.86613 mm^2
            Peak Dynamic = 9.16413 W
            Subthreshold Leakage = 0.486629 W
            Subthreshold Leakage with power gating = 0.22691 W
            Gate Leakage = 0.0421203 W
            Runtime Dynamic = 0.0220528 W

          Branch Target Buffer:
            Area = 0.64954 mm^2
            Peak Dynamic = 0.177867 W
            Subthreshold Leakage = 0.0811682 W
            Subthreshold Leakage with power gating = 0.0435357 W
            Gate Leakage = 0.00272758 W
            Runtime Dynamic = 0.0777002 W

          Branch Predictor:
            Area = 0.138516 mm^2
            Peak Dynamic = 0.0597838 W
            Subthreshold Leakage = 0.0199703 W
            Subthreshold Leakage with power gating = 0.0103282 W
            Gate Leakage = 0.000757657 W
            Runtime Dynamic = 0.0253059 W

              Global Predictor:
                Area = 0.0435221 mm^2
                Peak Dynamic = 0.0168831 W
                Subthreshold Leakage = 0.00759719 W
                Subthreshold Leakage with power gating = 0.0039236 W
                Gate Leakage = 0.000278362 W
                Runtime Dynamic = 0.00790357 W

              Local Predictor:
              L1_Local Predictor:
                Area = 0.0257064 mm^2
                Peak Dynamic = 0.0142575 W
                Subthreshold Leakage = 0.00384344 W
                Subthreshold Leakage with power gating = 0.00198631 W
                Gate Leakage = 0.000154548 W
                Runtime Dynamic = 0.00683022 W

              L2_Local Predictor:
                Area = 0.0151917 mm^2
                Peak Dynamic = 0.00527447 W
                Subthreshold Leakage = 0.00181347 W
                Subthreshold Leakage with power gating = 0.000957045 W
                Gate Leakage = 8.00196e-05 W
                Runtime Dynamic = 0.00261468 W

              Chooser:
                Area = 0.0435221 mm^2
                Peak Dynamic = 0.0168831 W
                Subthreshold Leakage = 0.00759719 W
                Subthreshold Leakage with power gating = 0.0039236 W
                Gate Leakage = 0.000278362 W
                Runtime Dynamic = 0.00790357 W

              RAS:
                Area = 0.0105732 mm^2
                Peak Dynamic = 0.0117602 W
                Subthreshold Leakage = 0.000932505 W
                Subthreshold Leakage with power gating = 0.000494733 W
                Gate Leakage = 4.63858e-05 W
                Runtime Dynamic = 0.00266858 W

          Instruction Buffer:
            Area = 0.0226323 mm^2
            Peak Dynamic = 0.606827 W
            Subthreshold Leakage = 0.00151885 W
            Subthreshold Leakage with power gating = 0.000701682 W
            Gate Leakage = 6.83558e-05 W
            Runtime Dynamic = 0.178584 W

          Instruction Decoder:
            Area = 1.85799 mm^2
            Peak Dynamic = 1.37404 W
            Subthreshold Leakage = 0.442943 W
            Subthreshold Leakage with power gating = 0.166104 W
            Gate Leakage = 0.0222493 W
[...]
                Gate Leakage = 0.000278362 W
                Runtime Dynamic = 0.00713238 W

              RAS:
                Area = 0.0105732 mm^2
                Peak Dynamic = 0.0117602 W
                Subthreshold Leakage = 0.000932505 W
                Subthreshold Leakage with power gating = 0.000494733 W
                Gate Leakage = 4.63858e-05 W
                Runtime Dynamic = 0.0024109 W

          Instruction Buffer:
            Area = 0.0226323 mm^2
            Peak Dynamic = 0.606827 W
            Subthreshold Leakage = 0.00151885 W
            Subthreshold Leakage with power gating = 0.000701682 W
            Gate Leakage = 6.83558e-05 W
            Runtime Dynamic = 0.16134 W

          Instruction Decoder:
            Area = 1.85799 mm^2
            Peak Dynamic = 1.37404 W
            Subthreshold Leakage = 0.442943 W
            Subthreshold Leakage with power gating = 0.166104 W
            Gate Leakage = 0.0222493 W
            Runtime Dynamic = 0.547983 W

      Renaming Unit:
        Area = 0.369768 mm^2
        Peak Dynamic = 4.56169 W
        Subthreshold Leakage = 0.070483 W
        Subthreshold Leakage with power gating = 0.0362779 W
        Gate Leakage = 0.00863632 W
        Runtime Dynamic = 0.361519 W

          Int Front End RAT:
            Area = 0.114751 mm^2
            Peak Dynamic = 0.86945 W
            Subthreshold Leakage = 0.00611897 W
            Subthreshold Leakage with power gating = 0.00348781 W
            Gate Leakage = 0.00038343 W
            Runtime Dynamic = 0.322689 W

          FP Front End RAT:
            Area = 0.168486 mm^2
            Peak Dynamic = 3.33511 W
            Subthreshold Leakage = 0.0437281 W
            Subthreshold Leakage with power gating = 0.024925 W
            Gate Leakage = 0.00489731 W
            Runtime Dynamic = 0.00673833 W

          Free List:
            Area = 0.0414755 mm^2
            Peak Dynamic = 0.0401324 W
            Subthreshold Leakage = 0.000670426 W
            Subthreshold Leakage with power gating = 0.000377987 W
            Gate Leakage = 4.15911e-05 W
            Runtime Dynamic = 0.0320917 W

      Load Store Unit:
        Area = 8.80969 mm^2
        Peak Dynamic = 8.34908 W
        Subthreshold Leakage = 0.591622 W
        Subthreshold Leakage with power gating = 0.283406 W
        Gate Leakage = 0.0351387 W
        Runtime Dynamic = 4.14665 W

          Data Cache:
            Area = 6.84535 mm^2
            Peak Dynamic = 7.40322 W
            Subthreshold Leakage = 0.527675 W
            Subthreshold Leakage with power gating = 0.25085 W
            Gate Leakage = 0.0279261 W
            Runtime Dynamic = 2.96335 W

          LoadQ:
            Area = 0.0836782 mm^2
            Peak Dynamic = 0.199488 W
            Subthreshold Leakage = 0.00941961 W
            Subthreshold Leakage with power gating = 0.00536918 W
            Gate Leakage = 0.00059896 W
            Runtime Dynamic = 0.199488 W

          StoreQ:
            Area = 0.322079 mm^2
            Peak Dynamic = 0.491904 W
            Subthreshold Leakage = 0.0345621 W
            Subthreshold Leakage with power gating = 0.0197004 W
            Gate Leakage = 0.00329971 W
            Runtime Dynamic = 0.983807 W

      Memory Management Unit:
        Area = 0.434579 mm^2
        Peak Dynamic = 0.860306 W
        Subthreshold Leakage = 0.0769113 W
        Subthreshold Leakage with power gating = 0.0399462 W
        Gate Leakage = 0.00813591 W
        Runtime Dynamic = 0.176323 W

          Itlb:
            Area = 0.301552 mm^2
            Peak Dynamic = 0.399995 W
            Subthreshold Leakage = 0.0413758 W
            Subthreshold Leakage with power gating = 0.0235842 W
            Gate Leakage = 0.00393464 W
            Runtime Dynamic = 0.00170581 W

          Dtlb:
            Area = 0.0879726 mm^2
            Peak Dynamic = 0.174578 W
            Subthreshold Leakage = 0.0155699 W
            Subthreshold Leakage with power gating = 0.00887485 W
            Gate Leakage = 0.00088729 W
            Runtime Dynamic = 0.174617 W

      Execution Unit:
        Area = 8.2042 mm^2
        Peak Dynamic = 6.12674 W
        Subthreshold Leakage = 1.83518 W
        Subthreshold Leakage with power gating = 0.709678 W
        Gate Leakage = 0.122718 W
        Runtime Dynamic = 4.48476 W

          Register Files:
            Area = 0.570804 mm^2
            Peak Dynamic = 0.166745 W
            Subthreshold Leakage = 0.0101387 W
            Subthreshold Leakage with power gating = 0.00423643 W
            Gate Leakage = 0.000622708 W
            Runtime Dynamic = 0.190524 W

              Integer RF:
                Area = 0.362673 mm^2
                Peak Dynamic = 0.164814 W
                Subthreshold Leakage = 0.00614175 W
                Subthreshold Leakage with power gating = 0.00246675 W
                Gate Leakage = 0.00038992 W
                Runtime Dynamic = 0.167831 W

              Floating Point RF:
                Area = 0.208131 mm^2
                Peak Dynamic = 0.00193151 W
                Subthreshold Leakage = 0.00399698 W
                Subthreshold Leakage with power gating = 0.00176968 W
                Gate Leakage = 0.000232788 W
                Runtime Dynamic = 0.0226933 W

          Instruction Scheduler:
            Area = 2.17927 mm^2
            Peak Dynamic = 4.84781 W
            Subthreshold Leakage = 0.114878 W
            Subthreshold Leakage with power gating = 0.0641291 W
            Gate Leakage = 0.00730101 W
            Runtime Dynamic = 2.33338 W

              Instruction Window:
                Area = 1.00996 mm^2
                Peak Dynamic = 2.07911 W
                Subthreshold Leakage = 0.0800117 W
                Subthreshold Leakage with power gating = 0.0455351 W
                Gate Leakage = 0.00529112 W
                Runtime Dynamic = 1.08402 W

              FP Instruction Window:
                Area = 0.328073 mm^2
                Peak Dynamic = 1.20978 W
                Subthreshold Leakage = 0.017004 W
                Subthreshold Leakage with power gating = 0.00962066 W
                Gate Leakage = 0.00115349 W
                Runtime Dynamic = 0.626008 W

              ROB:
                Area = 0.841232 mm^2
                Peak Dynamic = 1.55892 W
                Subthreshold Leakage = 0.0178624 W
                Subthreshold Leakage with power gating = 0.00897339 W
                Gate Leakage = 0.000856399 W
                Runtime Dynamic = 0.623355 W

          Integer ALUs (Count: 6 ):
            Area = 0.47087 mm^2
            Peak Dynamic = 0.617217 W
            Subthreshold Leakage = 0.40222 W
            Subthreshold Leakage with power gating = 0.150833 W
            Gate Leakage = 0.0265291 W
            Runtime Dynamic = 0.546989 W

          Floating Point Units (FPUs) (Count: 2 ):
            Area = 4.6585 mm^2
            Peak Dynamic = 0.0102239 W
            Subthreshold Leakage = 0.994829 W
            Subthreshold Leakage with power gating = 0.373061 W
            Gate Leakage = 0.0656156 W
            Runtime Dynamic = 0.30853 W

          Complex ALUs (Mul/Div) (Count: 1 ):
            Area = 0.235435 mm^2
            Peak Dynamic = 0.00189883 W
            Subthreshold Leakage = 0.20111 W
            Subthreshold Leakage with power gating = 0.0754163 W
            Gate Leakage = 0.0132646 W
            Runtime Dynamic = 0.20418 W

          Results Broadcast Bus:
            Area Overhead = 0.0442632 mm^2
            Peak Dynamic = 0.398778 W
            Subthreshold Leakage = 0.0920413 W
            Subthreshold Leakage with power gating = 0.0345155 W
            Gate Leakage = 0.00607074 W
            Runtime Dynamic = 0.901151 W

    L2
    Area = 22.2273 mm^2
    Peak Dynamic = 0.0047106 W
    Subthreshold Leakage = 4.28281 W
    Subthreshold Leakage with power gating = 1.92539 W
    Gate Leakage = 0.0518439 W
    Runtime Dynamic = 0.00036685 W

*****************************************************************************************
Core:
      Area = 52.0221 mm^2
      Peak Dynamic = 32.2053 W
      Subthreshold Leakage = 9.78705 W
      Subthreshold Leakage with power gating = 4.15395 W
      Gate Leakage = 0.421566 W
      Runtime Dynamic = 10.6443 W

      Instruction Fetch Unit:
        Area = 7.57986 mm^2
        Peak Dynamic = 11.6996 W
        Subthreshold Leakage = 1.0522 W
        Subthreshold Leakage with power gating = 0.455066 W
        Gate Leakage = 0.0712372 W
        Runtime Dynamic = 0.880449 W

          Instruction Cache:
            Area = 4.86613 mm^2
            Peak Dynamic = 9.16413 W
            Subthreshold Leakage = 0.486629 W
            Subthreshold Leakage with power gating = 0.22691 W
            Gate Leakage = 0.0421203 W
            Runtime Dynamic = 0.0220534 W

          Branch Target Buffer:
            Area = 0.64954 mm^2
            Peak Dynamic = 0.177867 W
            Subthreshold Leakage = 0.0811682 W
            Subthreshold Leakage with power gating = 0.0435357 W
            Gate Leakage = 0.00272758 W
            Runtime Dynamic = 0.0750734 W

          Branch Predictor:
            Area = 0.138516 mm^2
            Peak Dynamic = 0.0597838 W
            Subthreshold Leakage = 0.0199703 W
            Subthreshold Leakage with power gating = 0.0103282 W
            Gate Leakage = 0.000757657 W
            Runtime Dynamic = 0.0244514 W

              Global Predictor:
                Area = 0.0435221 mm^2
                Peak Dynamic = 0.0168831 W
                Subthreshold Leakage = 0.00759719 W
                Subthreshold Leakage with power gating = 0.0039236 W
                Gate Leakage = 0.000278362 W
                Runtime Dynamic = 0.00763638 W

              Local Predictor:
              L1_Local Predictor:
                Area = 0.0257064 mm^2
                Peak Dynamic = 0.0142575 W
                Subthreshold Leakage = 0.00384344 W
                Subthreshold Leakage with power gating = 0.00198631 W
                Gate Leakage = 0.000154548 W
                Runtime Dynamic = 0.00659931 W

              L2_Local Predictor:
                Area = 0.0151917 mm^2
                Peak Dynamic = 0.00527447 W
                Subthreshold Leakage = 0.00181347 W
                Subthreshold Leakage with power gating = 0.000957045 W
                Gate Leakage = 8.00196e-05 W
                Runtime Dynamic = 0.00252628 W

              Chooser:
                Area = 0.0435221 mm^2
                Peak Dynamic = 0.0168831 W
                Subthreshold Leakage = 0.00759719 W
                Subthreshold Leakage with power gating = 0.0039236 W
                Gate Leakage = 0.000278362 W
                Runtime Dynamic = 0.00763638 W

              RAS:
                Area = 0.0105732 mm^2
                Peak Dynamic = 0.0117602 W
                Subthreshold Leakage = 0.000932505 W
                Subthreshold Leakage with power gating = 0.000494733 W
                Gate Leakage = 4.63858e-05 W
                Runtime Dynamic = 0.00257931 W

          Instruction Buffer:
            Area = 0.0226323 mm^2
            Peak Dynamic = 0.606827 W
            Subthreshold Leakage = 0.00151885 W
            Subthreshold Leakage with power gating = 0.000701682 W
            Gate Leakage = 6.83558e-05 W
            Runtime Dynamic = 0.17261 W

          Instruction Decoder:
            Area = 1.85799 mm^2
            Peak Dynamic = 1.37404 W
            Subthreshold Leakage = 0.442943 W
            Subthreshold Leakage with power gating = 0.166104 W
            Gate Leakage = 0.0222493 W
            Runtime Dynamic = 0.586261 W

      Renaming Unit:
        Area = 0.369768 mm^2
        Peak Dynamic = 4.56169 W
        Subthreshold Leakage = 0.070483 W
        Subthreshold Leakage with power gating = 0.0362779 W
        Gate Leakage = 0.00863632 W
        Runtime Dynamic = 0.386292 W

          Int Front End RAT:
            Area = 0.114751 mm^2
            Peak Dynamic = 0.86945 W
            Subthreshold Leakage = 0.00611897 W
            Subthreshold Leakage with power gating = 0.00348781 W
            Gate Leakage = 0.00038343 W
            Runtime Dynamic = 0.345226 W

          FP Front End RAT:
            Area = 0.168486 mm^2
            Peak Dynamic = 3.33511 W
            Subthreshold Leakage = 0.0437281 W
            Subthreshold Leakage with power gating = 0.024925 W
            Gate Leakage = 0.00489731 W
            Runtime Dynamic = 0.00673833 W

          Free List:
            Area = 0.0414755 mm^2
            Peak Dynamic = 0.0401324 W
            Subthreshold Leakage = 0.000670426 W
            Subthreshold Leakage with power gating = 0.000377987 W
            Gate Leakage = 4.15911e-05 W
            Runtime Dynamic = 0.0343277 W

      Load Store Unit:
        Area = 8.80969 mm^2
        Peak Dynamic = 8.84268 W
        Subthreshold Leakage = 0.591622 W
        Subthreshold Leakage with power gating = 0.283406 W
        Gate Leakage = 0.0351387 W
        Runtime Dynamic = 4.43443 W

          Data Cache:
            Area = 6.84535 mm^2
            Peak Dynamic = 7.83117 W
            Subthreshold Leakage = 0.527675 W
            Subthreshold Leakage with power gating = 0.25085 W
            Gate Leakage = 0.0279261 W
            Runtime Dynamic = 3.16901 W

          LoadQ:
            Area = 0.0836782 mm^2
            Peak Dynamic = 0.213333 W
            Subthreshold Leakage = 0.00941961 W
            Subthreshold Leakage with power gating = 0.00536918 W
            Gate Leakage = 0.00059896 W
            Runtime Dynamic = 0.213333 W

          StoreQ:
            Area = 0.322079 mm^2
            Peak Dynamic = 0.526044 W
            Subthreshold Leakage = 0.0345621 W
            Subthreshold Leakage with power gating = 0.0197004 W
            Gate Leakage = 0.00329971 W
            Runtime Dynamic = 1.05209 W

      Memory Management Unit:
        Area = 0.434579 mm^2
        Peak Dynamic = 0.881253 W
        Subthreshold Leakage = 0.0769113 W
        Subthreshold Leakage with power gating = 0.0399462 W
        Gate Leakage = 0.00813591 W
        Runtime Dynamic = 0.188442 W

          Itlb:
            Area = 0.301552 mm^2
            Peak Dynamic = 0.399995 W
            Subthreshold Leakage = 0.0413758 W
            Subthreshold Leakage with power gating = 0.0235842 W
            Gate Leakage = 0.00393464 W
            Runtime Dynamic = 0.00170602 W

          Dtlb:
            Area = 0.0879726 mm^2
            Peak Dynamic = 0.186695 W
            Subthreshold Leakage = 0.0155699 W
            Subthreshold Leakage with power gating = 0.00887485 W
            Gate Leakage = 0.00088729 W
            Runtime Dynamic = 0.186736 W

      Execution Unit:
        Area = 8.2042 mm^2
        Peak Dynamic = 6.21501 W
        Subthreshold Leakage = 1.83518 W
        Subthreshold Leakage with power gating = 0.709678 W
        Gate Leakage = 0.122718 W
        Runtime Dynamic = 4.75427 W

          Register Files:
            Area = 0.570804 mm^2
            Peak Dynamic = 0.178207 W
            Subthreshold Leakage = 0.0101387 W
            Subthreshold Leakage with power gating = 0.00423643 W
            Gate Leakage = 0.000622708 W
            Runtime Dynamic = 0.203832 W

              Integer RF:
                Area = 0.362673 mm^2
                Peak Dynamic = 0.176276 W
                Subthreshold Leakage = 0.00614175 W
                Subthreshold Leakage with power gating = 0.00246675 W
                Gate Leakage = 0.00038992 W
                Runtime Dynamic = 0.179554 W

              Floating Point RF:
                Area = 0.208131 mm^2
                Peak Dynamic = 0.00193151 W
                Subthreshold Leakage = 0.00399698 W
                Subthreshold Leakage with power gating = 0.00176968 W
                Gate Leakage = 0.000232788 W
                Runtime Dynamic = 0.0242784 W

          Instruction Scheduler:
            Area = 2.17927 mm^2
            Peak Dynamic = 4.84781 W
            Subthreshold Leakage = 0.114878 W
            Subthreshold Leakage with power gating = 0.0641291 W
            Gate Leakage = 0.00730101 W
            Runtime Dynamic = 2.49626 W

              Instruction Window:
                Area = 1.00996 mm^2
                Peak Dynamic = 2.07911 W
                Subthreshold Leakage = 0.0800117 W
                Subthreshold Leakage with power gating = 0.0455351 W
                Gate Leakage = 0.00529112 W
                Runtime Dynamic = 1.15974 W

              FP Instruction Window:
                Area = 0.328073 mm^2
                Peak Dynamic = 1.20978 W
                Subthreshold Leakage = 0.017004 W
                Subthreshold Leakage with power gating = 0.00962066 W
                Gate Leakage = 0.00115349 W
                Runtime Dynamic = 0.669736 W

              ROB:
                Area = 0.841232 mm^2
                Peak Dynamic = 1.55892 W
                Subthreshold Leakage = 0.0178624 W
                Subthreshold Leakage with power gating = 0.00897339 W
                Gate Leakage = 0.000856399 W
                Runtime Dynamic = 0.666783 W

          Integer ALUs (Count: 6 ):
            Area = 0.47087 mm^2
            Peak Dynamic = 0.660438 W
            Subthreshold Leakage = 0.40222 W
            Subthreshold Leakage with power gating = 0.150833 W
            Gate Leakage = 0.0265291 W
            Runtime Dynamic = 0.577995 W

          Floating Point Units (FPUs) (Count: 2 ):
            Area = 4.6585 mm^2
            Peak Dynamic = 0.0102239 W
            Subthreshold Leakage = 0.994829 W
            Subthreshold Leakage with power gating = 0.373061 W
            Gate Leakage = 0.0656156 W
            Runtime Dynamic = 0.30853 W

          Complex ALUs (Mul/Div) (Count: 1 ):
            Area = 0.235435 mm^2
            Peak Dynamic = 0.00189883 W
            Subthreshold Leakage = 0.20111 W
            Subthreshold Leakage with power gating = 0.0754163 W
            Gate Leakage = 0.0132646 W
            Runtime Dynamic = 0.20418 W

          Results Broadcast Bus:
            Area Overhead = 0.0442632 mm^2
            Peak Dynamic = 0.426475 W
            Subthreshold Leakage = 0.0920413 W
            Subthreshold Leakage with power gating = 0.0345155 W
            Gate Leakage = 0.00607074 W
            Runtime Dynamic = 0.963473 W

    L2
    Area = 22.2273 mm^2
    Peak Dynamic = 0.00500444 W
    Subthreshold Leakage = 4.28281 W
    Subthreshold Leakage with power gating = 1.92539 W
    Gate Leakage = 0.0518439 W
    Runtime Dynamic = 0.000372081 W

*****************************************************************************************
      L3
      Area = 61.9075 mm^2
      Peak Dynamic = 0.0489009 W
      Subthreshold Leakage = 6.80085 W
      Subthreshold Leakage with power gating = 3.32364 W
      Gate Leakage = 0.0484137 W
      Runtime Dynamic = 0.0167154 W

*****************************************************************************************
      L3
      Area = 61.9075 mm^2
      Peak Dynamic = 0.0475177 W
      Subthreshold Leakage = 6.80085 W
      Subthreshold Leakage with power gating = 3.32364 W
      Gate Leakage = 0.0484137 W
      Runtime Dynamic = 0.0163347 W

*****************************************************************************************
BUSES
      Area = 5.83965 mm^2
      Peak Dynamic = 0.311869 W
      Subthreshold Leakage = 0.163365 W
      Subthreshold Leakage with power gating = 0.0612617 W
      Gate Leakage = 0.0156661 W
      Runtime Dynamic = 0.0416714 W

      Bus: 
        Area = 5.83965 mm^2
        Peak Dynamic = 0.311869 W
        Subthreshold Leakage = 0.163365 W
        Subthreshold Leakage with power gating = 0.0612617 W
        Gate Leakage = 0.0156661 W
        Runtime Dynamic = 0.0416714 W

*****************************************************************************************
