McPAT (version 1.0 of Aug, 2013) is computing the target processor...
 

McPAT (version 1.0 of Aug, 2013) results  (current print level is 5)
*****************************************************************************************
  Technology 45 nm
  Using Long Channel Devices When Appropriate
  Interconnect metal projection= aggressive interconnect technology projection
  Core clock Rate(MHz) 2660

*****************************************************************************************
Processor: 
  Area = 962.008 mm^2
  Peak Power = 410.938 W
  Total Leakage = 177.215 W
  Peak Dynamic = 233.723 W
  Subthreshold Leakage = 170.358 W
  Subthreshold Leakage with power gating = 73.9956 W
  Gate Leakage = 6.85755 W
  Runtime Dynamic = 18.3004 W

  Total Cores: 16 cores 
  Device Type= ITRS high performance device type
    Area = 832.354 mm^2
    Peak Dynamic = 224.946 W
    Subthreshold Leakage = 156.593 W
    Subthreshold Leakage with power gating = 66.4632 W
    Gate Leakage = 6.74505 W
    Runtime Dynamic = 16.9497 W

  Total L3s: 
  Device Type= ITRS high performance device type
    Area = 123.815 mm^2
    Peak Dynamic = 1.39995 W
    Subthreshold Leakage = 13.6017 W
    Subthreshold Leakage with power gating = 6.64728 W
    Gate Leakage = 0.0968273 W
    Runtime Dynamic = 0.542443 W

  Total NoCs (Network/Bus): 
  Device Type= ITRS high performance device type
    Area = 5.83965 mm^2
    Peak Dynamic = 7.37686 W
    Subthreshold Leakage = 0.163365 W
    Subthreshold Leakage with power gating = 0.0612617 W
    Gate Leakage = 0.0156661 W
    Runtime Dynamic = 0.808228 W

*****************************************************************************************
Core:
      Area = 52.0221 mm^2
      Peak Dynamic = 14.1607 W
      Subthreshold Leakage = 9.78705 W
      Subthreshold Leakage with power gating = 4.15395 W
      Gate Leakage = 0.421566 W
      Runtime Dynamic = 1.11174 W

      Instruction Fetch Unit:
        Area = 7.57986 mm^2
        Peak Dynamic = 2.81487 W
        Subthreshold Leakage = 1.0522 W
        Subthreshold Leakage with power gating = 0.455066 W
        Gate Leakage = 0.0712372 W
        Runtime Dynamic = 0.0487704 W

          Instruction Cache:
            Area = 4.86613 mm^2
            Peak Dynamic = 0.576415 W
            Subthreshold Leakage = 0.486629 W
            Subthreshold Leakage with power gating = 0.22691 W
            Gate Leakage = 0.0421203 W
            Runtime Dynamic = 0.0182654 W

          Branch Target Buffer:
            Area = 0.64954 mm^2
            Peak Dynamic = 0.177867 W
            Subthreshold Leakage = 0.0811682 W
            Subthreshold Leakage with power gating = 0.0435357 W
            Gate Leakage = 0.00272758 W
            Runtime Dynamic = 0.00189048 W

          Branch Predictor:
            Area = 0.138516 mm^2
            Peak Dynamic = 0.0597838 W
            Subthreshold Leakage = 0.0199703 W
            Subthreshold Leakage with power gating = 0.0103282 W
            Gate Leakage = 0.000757657 W
            Runtime Dynamic = 0.000646614 W

              Global Predictor:
                Area = 0.0435221 mm^2
                Peak Dynamic = 0.0168831 W
                Subthreshold Leakage = 0.00759719 W
                Subthreshold Leakage with power gating = 0.0039236 W
                Gate Leakage = 0.000278362 W
                Runtime Dynamic = 0.000192545 W

              Local Predictor:
              L1_Local Predictor:
                Area = 0.0257064 mm^2
                Peak Dynamic = 0.0142575 W
                Subthreshold Leakage = 0.00384344 W
                Subthreshold Leakage with power gating = 0.00198631 W
                Gate Leakage = 0.000154548 W
                Runtime Dynamic = 0.000166465 W

              L2_Local Predictor:
                Area = 0.0151917 mm^2
                Peak Dynamic = 0.00527447 W
                Subthreshold Leakage = 0.00181347 W
                Subthreshold Leakage with power gating = 0.000957045 W
                Gate Leakage = 8.00196e-05 W
                Runtime Dynamic = 6.3762e-05 W

              Chooser:
                Area = 0.0435221 mm^2
                Peak Dynamic = 0.0168831 W
                Subthreshold Leakage = 0.00759719 W
                Subthreshold Leakage with power gating = 0.0039236 W
                Gate Leakage = 0.000278362 W
                Runtime Dynamic = 0.000192545 W

              RAS:
                Area = 0.0105732 mm^2
                Peak Dynamic = 0.0117602 W
                Subthreshold Leakage = 0.000932505 W
                Subthreshold Leakage with power gating = 0.000494733 W
                Gate Leakage = 4.63858e-05 W
                Runtime Dynamic = 9.50583e-05 W

          Instruction Buffer:
            Area = 0.0226323 mm^2
            Peak Dynamic = 0.606827 W
            Subthreshold Leakage = 0.00151885 W
            Subthreshold Leakage with power gating = 0.000701682 W
            Gate Leakage = 6.83558e-05 W
            Runtime Dynamic = 0.00636146 W

          Instruction Decoder:
            Area = 1.85799 mm^2
            Peak Dynamic = 1.37404 W
            Subthreshold Leakage = 0.442943 W
            Subthreshold Leakage with power gating = 0.166104 W
            Gate Leakage = 0.0222493 W
            Runtime Dynamic = 0.0216064 W

      Renaming Unit:
        Area = 0.369768 mm^2
        Peak Dynamic = 4.56169 W
        Subthreshold Leakage = 0.070483 W
        Subthreshold Leakage with power gating = 0.0362779 W
        Gate Leakage = 0.00863632 W
        Runtime Dynamic = 0.0183124 W

          Int Front End RAT:
            Area = 0.114751 mm^2
            Peak Dynamic = 0.86945 W
            Subthreshold Leakage = 0.00611897 W
            Subthreshold Leakage with power gating = 0.00348781 W
            Gate Leakage = 0.00038343 W
            Runtime Dynamic = 0.0128805 W

          FP Front End RAT:
            Area = 0.168486 mm^2
            Peak Dynamic = 3.33511 W
            Subthreshold Leakage = 0.0437281 W
            Subthreshold Leakage with power gating = 0.024925 W
            Gate Leakage = 0.00489731 W
            Runtime Dynamic = 0.00412012 W

          Free List:
            Area = 0.0414755 mm^2
            Peak Dynamic = 0.0401324 W
            Subthreshold Leakage = 0.000670426 W
            Subthreshold Leakage with power gating = 0.000377987 W
            Gate Leakage = 4.15911e-05 W
            Runtime Dynamic = 0.00131172 W

      Load Store Unit:
        Area = 8.80969 mm^2
        Peak Dynamic = 1.58422 W
        Subthreshold Leakage = 0.591622 W
        Subthreshold Leakage with power gating = 0.283406 W
        Gate Leakage = 0.0351387 W
        Runtime Dynamic = 0.222473 W

          Data Cache:
            Area = 6.84535 mm^2
            Peak Dynamic = 1.53805 W
            Subthreshold Leakage = 0.527675 W
            Subthreshold Leakage with power gating = 0.25085 W
            Gate Leakage = 0.0279261 W
            Runtime Dynamic = 0.164722 W

          LoadQ:
            Area = 0.0836782 mm^2
            Peak Dynamic = 0.00973594 W
            Subthreshold Leakage = 0.00941961 W
            Subthreshold Leakage with power gating = 0.00536918 W
            Gate Leakage = 0.00059896 W
            Runtime Dynamic = 0.00973592 W

          StoreQ:
            Area = 0.322079 mm^2
            Peak Dynamic = 0.0240072 W
            Subthreshold Leakage = 0.0345621 W
            Subthreshold Leakage with power gating = 0.0197004 W
            Gate Leakage = 0.00329971 W
            Runtime Dynamic = 0.0480142 W

      Memory Management Unit:
        Area = 0.434579 mm^2
        Peak Dynamic = 0.198387 W
        Subthreshold Leakage = 0.0769113 W
        Subthreshold Leakage with power gating = 0.0399462 W
        Gate Leakage = 0.00813591 W
        Runtime Dynamic = 0.0107222 W

          Itlb:
            Area = 0.301552 mm^2
            Peak Dynamic = 0.0251593 W
            Subthreshold Leakage = 0.0413758 W
            Subthreshold Leakage with power gating = 0.0235842 W
            Gate Leakage = 0.00393464 W
            Runtime Dynamic = 0.00141335 W

          Dtlb:
            Area = 0.0879726 mm^2
            Peak Dynamic = 0.00852022 W
            Subthreshold Leakage = 0.0155699 W
            Subthreshold Leakage with power gating = 0.00887485 W
            Gate Leakage = 0.00088729 W
            Runtime Dynamic = 0.00930879 W

      Execution Unit:
        Area = 8.2042 mm^2
        Peak Dynamic = 4.90678 W
        Subthreshold Leakage = 1.83518 W
        Subthreshold Leakage with power gating = 0.709678 W
        Gate Leakage = 0.122718 W
        Runtime Dynamic = 0.787456 W

          Register Files:
            Area = 0.570804 mm^2
            Peak Dynamic = 0.00805744 W
            Subthreshold Leakage = 0.0101387 W
            Subthreshold Leakage with power gating = 0.00423643 W
            Gate Leakage = 0.000622708 W
            Runtime Dynamic = 0.00751214 W

              Integer RF:
                Area = 0.362673 mm^2
                Peak Dynamic = 0.00687636 W
                Subthreshold Leakage = 0.00614175 W
                Subthreshold Leakage with power gating = 0.00246675 W
                Gate Leakage = 0.00038992 W
                Runtime Dynamic = 0.00661738 W

              Floating Point RF:
                Area = 0.208131 mm^2
                Peak Dynamic = 0.00118108 W
                Subthreshold Leakage = 0.00399698 W
                Subthreshold Leakage with power gating = 0.00176968 W
                Gate Leakage = 0.000232788 W
                Runtime Dynamic = 0.000894767 W

          Instruction Scheduler:
            Area = 2.17927 mm^2
            Peak Dynamic = 4.84781 W
            Subthreshold Leakage = 0.114878 W
            Subthreshold Leakage with power gating = 0.0641291 W
            Gate Leakage = 0.00730101 W
            Runtime Dynamic = 0.096452 W

              Instruction Window:
                Area = 1.00996 mm^2
                Peak Dynamic = 2.07911 W
                Subthreshold Leakage = 0.0800117 W
                Subthreshold Leakage with power gating = 0.0455351 W
                Gate Leakage = 0.00529112 W
                Runtime Dynamic = 0.0427417 W

              FP Instruction Window:
                Area = 0.328073 mm^2
                Peak Dynamic = 1.20978 W
                Subthreshold Leakage = 0.017004 W
                Subthreshold Leakage with power gating = 0.00962066 W
                Gate Leakage = 0.00115349 W
                Runtime Dynamic = 0.0246828 W

              ROB:
                Area = 0.841232 mm^2
                Peak Dynamic = 1.55892 W
                Subthreshold Leakage = 0.0178624 W
                Subthreshold Leakage with power gating = 0.00897339 W
                Gate Leakage = 0.000856399 W
                Runtime Dynamic = 0.0290275 W

          Integer ALUs (Count: 6 ):
            Area = 0.47087 mm^2
            Peak Dynamic = 0.0234387 W
            Subthreshold Leakage = 0.40222 W
            Subthreshold Leakage with power gating = 0.150833 W
            Gate Leakage = 0.0265291 W
            Runtime Dynamic = 0.124117 W

          Floating Point Units (FPUs) (Count: 2 ):
            Area = 4.6585 mm^2
            Peak Dynamic = 0.00625172 W
            Subthreshold Leakage = 0.994829 W
            Subthreshold Leakage with power gating = 0.373061 W
            Gate Leakage = 0.0656156 W
            Runtime Dynamic = 0.306783 W

          Complex ALUs (Mul/Div) (Count: 1 ):
            Area = 0.235435 mm^2
            Peak Dynamic = 0.0011119 W
            Subthreshold Leakage = 0.20111 W
            Subthreshold Leakage with power gating = 0.0754163 W
            Gate Leakage = 0.0132646 W
            Runtime Dynamic = 0.203562 W

          Results Broadcast Bus:
            Area Overhead = 0.0442632 mm^2
            Peak Dynamic = 0.0169207 W
            Subthreshold Leakage = 0.0920413 W
            Subthreshold Leakage with power gating = 0.0345155 W
            Gate Leakage = 0.00607074 W
            Runtime Dynamic = 0.0490303 W

    L2
    Area = 22.2273 mm^2
    Peak Dynamic = 0.0947447 W
    Subthreshold Leakage = 4.28281 W
    Subthreshold Leakage with power gating = 1.92539 W
    Gate Leakage = 0.0518439 W
    Runtime Dynamic = 0.0240071 W

*****************************************************************************************
Core:
      Area = 52.0221 mm^2
      Peak Dynamic = 13.9212 W
      Subthreshold Leakage = 9.78705 W
      Subthreshold Leakage with power gating = 4.15395 W
      Gate Leakage = 0.421566 W
      Runtime Dynamic = 1.00147 W

      Instruction Fetch Unit:
        Area = 7.57986 mm^2
        Peak Dynamic = 2.69525 W
        Subthreshold Leakage = 1.0522 W
        Subthreshold Leakage with power gating = 0.455066 W
        Gate Leakage = 0.0712372 W
        Runtime Dynamic = 0.0425575 W

          Instruction Cache:
            Area = 4.86613 mm^2
            Peak Dynamic = 0.4608 W
            Subthreshold Leakage = 0.486629 W
            Subthreshold Leakage with power gating = 0.22691 W
            Gate Leakage = 0.0421203 W
            Runtime Dynamic = 0.0182605 W

          Branch Target Buffer:
            Area = 0.64954 mm^2
            Peak Dynamic = 0.177867 W
            Subthreshold Leakage = 0.0811682 W
            Subthreshold Leakage with power gating = 0.0435357 W
            Gate Leakage = 0.00272758 W
            Runtime Dynamic = 0.00144178 W

          Branch Predictor:
            Area = 0.138516 mm^2
            Peak Dynamic = 0.0597838 W
            Subthreshold Leakage = 0.0199703 W
            Subthreshold Leakage with power gating = 0.0103282 W
            Gate Leakage = 0.000757657 W
            Runtime Dynamic = 0.00049693 W

              Global Predictor:
                Area = 0.0435221 mm^2
                Peak Dynamic = 0.0168831 W
                Subthreshold Leakage = 0.00759719 W
                Subthreshold Leakage with power gating = 0.0039236 W
                Gate Leakage = 0.000278362 W
                Runtime Dynamic = 0.000146939 W

              Local Predictor:
              L1_Local Predictor:
                Area = 0.0257064 mm^2
                Peak Dynamic = 0.0142575 W
                Subthreshold Leakage = 0.00384344 W
                Subthreshold Leakage with power gating = 0.00198631 W
                Gate Leakage = 0.000154548 W
                Runtime Dynamic = 0.000127062 W

              L2_Local Predictor:
                Area = 0.0151917 mm^2
                Peak Dynamic = 0.00527447 W
                Subthreshold Leakage = 0.00181347 W
                Subthreshold Leakage with power gating = 0.000957045 W
                Gate Leakage = 8.00196e-05 W
                Runtime Dynamic = 4.86834e-05 W

              Chooser:
                Area = 0.0435221 mm^2
                Peak Dynamic = 0.0168831 W
                Subthreshold Leakage = 0.00759719 W
                Subthreshold Leakage with power gating = 0.0039236 W
                Gate Leakage = 0.000278362 W
                Runtime Dynamic = 0.000146939 W

              RAS:
                Area = 0.0105732 mm^2
                Peak Dynamic = 0.0117602 W
                Subthreshold Leakage = 0.000932505 W
                Subthreshold Leakage with power gating = 0.000494733 W
                Gate Leakage = 4.63858e-05 W
                Runtime Dynamic = 7.59898e-05 W

          Instruction Buffer:
            Area = 0.0226323 mm^2
            Peak Dynamic = 0.606827 W
            Subthreshold Leakage = 0.00151885 W
            Subthreshold Leakage with power gating = 0.000701682 W
            Gate Leakage = 6.83558e-05 W
            Runtime Dynamic = 0.0050855 W

          Instruction Decoder:
            Area = 1.85799 mm^2
            Peak Dynamic = 1.37404 W
            Subthreshold Leakage = 0.442943 W
            Subthreshold Leakage with power gating = 0.166104 W
            Gate Leakage = 0.0222493 W
            Runtime Dynamic = 0.0172727 W

      Renaming Unit:
        Area = 0.369768 mm^2
        Peak Dynamic = 4.56169 W
        Subthreshold Leakage = 0.070483 W
        Subthreshold Leakage with power gating = 0.0362779 W
        Gate Leakage = 0.00863632 W
        Runtime Dynamic = 0.0154694 W

          Int Front End RAT:
            Area = 0.114751 mm^2
            Peak Dynamic = 0.86945 W
            Subthreshold Leakage = 0.00611897 W
            Subthreshold Leakage with power gating = 0.00348781 W
            Gate Leakage = 0.00038343 W
            Runtime Dynamic = 0.0102907 W

          FP Front End RAT:
            Area = 0.168486 mm^2
            Peak Dynamic = 3.33511 W
            Subthreshold Leakage = 0.0437281 W
            Subthreshold Leakage with power gating = 0.024925 W
            Gate Leakage = 0.00489731 W
            Runtime Dynamic = 0.00412012 W

          Free List:
            Area = 0.0414755 mm^2
            Peak Dynamic = 0.0401324 W
            Subthreshold Leakage = 0.000670426 W
            Subthreshold Leakage with power gating = 0.000377987 W
            Gate Leakage = 4.15911e-05 W
            Runtime Dynamic = 0.00105857 W

      Load Store Unit:
        Area = 8.80969 mm^2
        Peak Dynamic = 1.51718 W
        Subthreshold Leakage = 0.591622 W
        Subthreshold Leakage with power gating = 0.283406 W
        Gate Leakage = 0.0351387 W
        Runtime Dynamic = 0.171794 W

          Data Cache:
            Area = 6.84535 mm^2
            Peak Dynamic = 1.47993 W
            Subthreshold Leakage = 0.527675 W
            Subthreshold Leakage with power gating = 0.25085 W
            Gate Leakage = 0.0279261 W
            Runtime Dynamic = 0.125198 W

          LoadQ:
            Area = 0.0836782 mm^2
            Peak Dynamic = 0.0078555 W
            Subthreshold Leakage = 0.00941961 W
            Subthreshold Leakage with power gating = 0.00536918 W
            Gate Leakage = 0.00059896 W
            Runtime Dynamic = 0.00785543 W

          StoreQ:
            Area = 0.322079 mm^2
            Peak Dynamic = 0.0193703 W
            Subthreshold Leakage = 0.0345621 W
            Subthreshold Leakage with power gating = 0.0197004 W
            Gate Leakage = 0.00329971 W
            Runtime Dynamic = 0.0387403 W

      Memory Management Unit:
        Area = 0.434579 mm^2
        Peak Dynamic = 0.190496 W
        Subthreshold Leakage = 0.0769113 W
        Subthreshold Leakage with power gating = 0.0399462 W
        Gate Leakage = 0.00813591 W
        Runtime Dynamic = 0.00878506 W

          Itlb:
            Area = 0.301552 mm^2
            Peak Dynamic = 0.0201129 W
            Subthreshold Leakage = 0.0413758 W
            Subthreshold Leakage with power gating = 0.0235842 W
            Gate Leakage = 0.00393464 W
            Runtime Dynamic = 0.00141297 W

          Dtlb:
            Area = 0.0879726 mm^2
            Peak Dynamic = 0.00687459 W
            Subthreshold Leakage = 0.0155699 W
            Subthreshold Leakage with power gating = 0.00887485 W
            Gate Leakage = 0.00088729 W
            Runtime Dynamic = 0.00737205 W

      Execution Unit:
        Area = 8.2042 mm^2
        Peak Dynamic = 4.89679 W
        Subthreshold Leakage = 1.83518 W
        Subthreshold Leakage with power gating = 0.709678 W
        Gate Leakage = 0.122718 W
        Runtime Dynamic = 0.752437 W

          Register Files:
            Area = 0.570804 mm^2
            Peak Dynamic = 0.00676006 W
            Subthreshold Leakage = 0.0101387 W
            Subthreshold Leakage with power gating = 0.00423643 W
            Gate Leakage = 0.000622708 W
            Runtime Dynamic = 0.0060054 W

              Integer RF:
                Area = 0.362673 mm^2
                Peak Dynamic = 0.00557898 W
                Subthreshold Leakage = 0.00614175 W
                Subthreshold Leakage with power gating = 0.00246675 W
                Gate Leakage = 0.00038992 W
                Runtime Dynamic = 0.00529009 W

              Floating Point RF:
                Area = 0.208131 mm^2
                Peak Dynamic = 0.00118108 W
                Subthreshold Leakage = 0.00399698 W
                Subthreshold Leakage with power gating = 0.00176968 W
                Gate Leakage = 0.000232788 W
                Runtime Dynamic = 0.000715302 W

          Instruction Scheduler:
            Area = 2.17927 mm^2
            Peak Dynamic = 4.84781 W
            Subthreshold Leakage = 0.114878 W
            Subthreshold Leakage with power gating = 0.0641291 W
            Gate Leakage = 0.00730101 W
            Runtime Dynamic = 0.0770284 W

              Instruction Window:
                Area = 1.00996 mm^2
                Peak Dynamic = 2.07911 W
                Subthreshold Leakage = 0.0800117 W
                Subthreshold Leakage with power gating = 0.0455351 W
                Gate Leakage = 0.00529112 W
                Runtime Dynamic = 0.0341687 W

              FP Instruction Window:
                Area = 0.328073 mm^2
                Peak Dynamic = 1.20978 W
                Subthreshold Leakage = 0.017004 W
                Subthreshold Leakage with power gating = 0.00962066 W
                Gate Leakage = 0.00115349 W
                Runtime Dynamic = 0.019732 W

              ROB:
                Area = 0.841232 mm^2
                Peak Dynamic = 1.55892 W
                Subthreshold Leakage = 0.0178624 W
                Subthreshold Leakage with power gating = 0.00897339 W
                Gate Leakage = 0.000856399 W
                Runtime Dynamic = 0.0231276 W

          Integer ALUs (Count: 6 ):
            Area = 0.47087 mm^2
            Peak Dynamic = 0.0185466 W
            Subthreshold Leakage = 0.40222 W
            Subthreshold Leakage with power gating = 0.150833 W
            Gate Leakage = 0.0265291 W
            Runtime Dynamic = 0.119437 W

          Floating Point Units (FPUs) (Count: 2 ):
            Area = 4.6585 mm^2
            Peak Dynamic = 0.00625172 W
            Subthreshold Leakage = 0.994829 W
            Subthreshold Leakage with power gating = 0.373061 W
            Gate Leakage = 0.0656156 W
            Runtime Dynamic = 0.306783 W

          Complex ALUs (Mul/Div) (Count: 1 ):
            Area = 0.235435 mm^2
            Peak Dynamic = 0.0011119 W
            Subthreshold Leakage = 0.20111 W
            Subthreshold Leakage with power gating = 0.0754163 W
            Gate Leakage = 0.0132646 W
            Runtime Dynamic = 0.203562 W

          Results Broadcast Bus:
            Area Overhead = 0.0442632 mm^2
            Peak Dynamic = 0.0137857 W
            Subthreshold Leakage = 0.0920413 W
            Subthreshold Leakage with power gating = 0.0345155 W
            Gate Leakage = 0.00607074 W
            Runtime Dynamic = 0.0396224 W

    L2
    Area = 22.2273 mm^2
    Peak Dynamic = 0.0597778 W
    Subthreshold Leakage = 4.28281 W
    Subthreshold Leakage with power gating = 1.92539 W
    Gate Leakage = 0.0518439 W
    Runtime Dynamic = 0.0104287 W

*****************************************************************************************
Core:
      Area = 52.0221 mm^2
      Peak Dynamic = 14.1931 W
      Subthreshold Leakage = 9.78705 W
      Subthreshold Leakage with power gating = 4.15395 W
      Gate Leakage = 0.421566 W
      Runtime Dynamic = 1.10981 W

      Instruction Fetch Unit:
        Area = 7.57986 mm^2
        Peak Dynamic = 2.83953 W
        Subthreshold Leakage = 1.0522 W
        Subthreshold Leakage with power gating = 0.455066 W
        Gate Leakage = 0.0712372 W
        Runtime Dynamic = 0.0500508 W

          Instruction Cache:
            Area = 4.86613 mm^2
            Peak Dynamic = 0.600251 W
            Subthreshold Leakage = 0.486629 W
            Subthreshold Leakage with power gating = 0.22691 W
            Gate Leakage = 0.0421203 W
            Runtime Dynamic = 0.0182654 W

          Branch Target Buffer:
            Area = 0.64954 mm^2
            Peak Dynamic = 0.177867 W
            Subthreshold Leakage = 0.0811682 W
            Subthreshold Leakage with power gating = 0.0435357 W
            Gate Leakage = 0.00272758 W
            Runtime Dynamic = 0.00198306 W

          Branch Predictor:
            Area = 0.138516 mm^2
            Peak Dynamic = 0.0597838 W
            Subthreshold Leakage = 0.0199703 W
            Subthreshold Leakage with power gating = 0.0103282 W
            Gate Leakage = 0.000757657 W
            Runtime Dynamic = 0.000677912 W

              Global Predictor:
                Area = 0.0435221 mm^2
                Peak Dynamic = 0.0168831 W
                Subthreshold Leakage = 0.00759719 W
                Subthreshold Leakage with power gating = 0.0039236 W
                Gate Leakage = 0.000278362 W
                Runtime Dynamic = 0.000202089 W

              Local Predictor:
              L1_Local Predictor:
                Area = 0.0257064 mm^2
                Peak Dynamic = 0.0142575 W
                Subthreshold Leakage = 0.00384344 W
                Subthreshold Leakage with power gating = 0.00198631 W
                Gate Leakage = 0.000154548 W
                Runtime Dynamic = 0.000174747 W

              L2_Local Predictor:
                Area = 0.0151917 mm^2
                Peak Dynamic = 0.00527447 W
                Subthreshold Leakage = 0.00181347 W
                Subthreshold Leakage with power gating = 0.000957045 W
                Gate Leakage = 8.00196e-05 W
                Runtime Dynamic = 6.69516e-05 W

              Chooser:
                Area = 0.0435221 mm^2
                Peak Dynamic = 0.0168831 W
                Subthreshold Leakage = 0.00759719 W
                Subthreshold Leakage with power gating = 0.0039236 W
                Gate Leakage = 0.000278362 W
                Runtime Dynamic = 0.000202089 W

              RAS:
                Area = 0.0105732 mm^2
                Peak Dynamic = 0.0117602 W
                Subthreshold Leakage = 0.000932505 W
                Subthreshold Leakage with power gating = 0.000494733 W
                Gate Leakage = 4.63858e-05 W
                Runtime Dynamic = 9.8988e-05 W

          Instruction Buffer:
            Area = 0.0226323 mm^2
            Peak Dynamic = 0.606827 W
            Subthreshold Leakage = 0.00151885 W
            Subthreshold Leakage with power gating = 0.000701682 W
            Gate Leakage = 6.83558e-05 W
            Runtime Dynamic = 0.00662453 W

          Instruction Decoder:
            Area = 1.85799 mm^2
            Peak Dynamic = 1.37404 W
            Subthreshold Leakage = 0.442943 W
            Subthreshold Leakage with power gating = 0.166104 W
            Gate Leakage = 0.0222493 W
            Runtime Dynamic = 0.0224999 W

      Renaming Unit:
        Area = 0.369768 mm^2
        Peak Dynamic = 4.56169 W
        Subthreshold Leakage = 0.070483 W
        Subthreshold Leakage with power gating = 0.0362779 W
        Gate Leakage = 0.00863632 W
        Runtime Dynamic = 0.0188986 W

          Int Front End RAT:
            Area = 0.114751 mm^2
            Peak Dynamic = 0.86945 W
            Subthreshold Leakage = 0.00611897 W
            Subthreshold Leakage with power gating = 0.00348781 W
            Gate Leakage = 0.00038343 W
            Runtime Dynamic = 0.0134145 W

          FP Front End RAT:
            Area = 0.168486 mm^2
            Peak Dynamic = 3.33511 W
            Subthreshold Leakage = 0.0437281 W
            Subthreshold Leakage with power gating = 0.024925 W
            Gate Leakage = 0.00489731 W
            Runtime Dynamic = 0.00412012 W

          Free List:
            Area = 0.0414755 mm^2
            Peak Dynamic = 0.0401324 W
            Subthreshold Leakage = 0.000670426 W
            Subthreshold Leakage with power gating = 0.000377987 W
            Gate Leakage = 4.15911e-05 W
            Runtime Dynamic = 0.00136392 W

      Load Store Unit:
        Area = 8.80969 mm^2
        Peak Dynamic = 1.59806 W
        Subthreshold Leakage = 0.591622 W
        Subthreshold Leakage with power gating = 0.283406 W
        Gate Leakage = 0.0351387 W
        Runtime Dynamic = 0.221539 W

          Data Cache:
            Area = 6.84535 mm^2
            Peak Dynamic = 1.55005 W
            Subthreshold Leakage = 0.527675 W
            Subthreshold Leakage with power gating = 0.25085 W
            Gate Leakage = 0.0279261 W
            Runtime Dynamic = 0.161486 W

          LoadQ:
            Area = 0.0836782 mm^2
            Peak Dynamic = 0.0101241 W
            Subthreshold Leakage = 0.00941961 W
            Subthreshold Leakage with power gating = 0.00536918 W
            Gate Leakage = 0.00059896 W
            Runtime Dynamic = 0.0101241 W

          StoreQ:
            Area = 0.322079 mm^2
            Peak Dynamic = 0.0249643 W
            Subthreshold Leakage = 0.0345621 W
            Subthreshold Leakage with power gating = 0.0197004 W
            Gate Leakage = 0.00329971 W
            Runtime Dynamic = 0.0499287 W

      Memory Management Unit:
        Area = 0.434579 mm^2
        Peak Dynamic = 0.200015 W
        Subthreshold Leakage = 0.0769113 W
        Subthreshold Leakage with power gating = 0.0399462 W
        Gate Leakage = 0.00813591 W
        Runtime Dynamic = 0.0109807 W

          Itlb:
            Area = 0.301552 mm^2
            Peak Dynamic = 0.0261997 W
            Subthreshold Leakage = 0.0413758 W
            Subthreshold Leakage with power gating = 0.0235842 W
            Gate Leakage = 0.00393464 W
            Runtime Dynamic = 0.00141335 W

          Dtlb:
            Area = 0.0879726 mm^2
            Peak Dynamic = 0.00885992 W
            Subthreshold Leakage = 0.0155699 W
            Subthreshold Leakage with power gating = 0.00887485 W
            Gate Leakage = 0.00088729 W
            Runtime Dynamic = 0.00956728 W

      Execution Unit:
        Area = 8.2042 mm^2
        Peak Dynamic = 4.90884 W
        Subthreshold Leakage = 1.83518 W
        Subthreshold Leakage with power gating = 0.709678 W
        Gate Leakage = 0.122718 W
        Runtime Dynamic = 0.794676 W

          Register Files:
            Area = 0.570804 mm^2
            Peak Dynamic = 0.00832531 W
            Subthreshold Leakage = 0.0101387 W
            Subthreshold Leakage with power gating = 0.00423643 W
            Gate Leakage = 0.000622708 W
            Runtime Dynamic = 0.0078228 W

              Integer RF:
                Area = 0.362673 mm^2
                Peak Dynamic = 0.00714423 W
                Subthreshold Leakage = 0.00614175 W
                Subthreshold Leakage with power gating = 0.00246675 W
                Gate Leakage = 0.00038992 W
                Runtime Dynamic = 0.00689103 W

              Floating Point RF:
                Area = 0.208131 mm^2
                Peak Dynamic = 0.00118108 W
                Subthreshold Leakage = 0.00399698 W
                Subthreshold Leakage with power gating = 0.00176968 W
                Gate Leakage = 0.000232788 W
                Runtime Dynamic = 0.000931772 W

          Instruction Scheduler:
            Area = 2.17927 mm^2
            Peak Dynamic = 4.84781 W
            Subthreshold Leakage = 0.114878 W
            Subthreshold Leakage with power gating = 0.0641291 W
            Gate Leakage = 0.00730101 W
            Runtime Dynamic = 0.100457 W

              Instruction Window:
                Area = 1.00996 mm^2
                Peak Dynamic = 2.07911 W
                Subthreshold Leakage = 0.0800117 W
                Subthreshold Leakage with power gating = 0.0455351 W
                Gate Leakage = 0.00529112 W
                Runtime Dynamic = 0.0445092 W

              FP Instruction Window:
                Area = 0.328073 mm^2
                Peak Dynamic = 1.20978 W
                Subthreshold Leakage = 0.017004 W
                Subthreshold Leakage with power gating = 0.00962066 W
                Gate Leakage = 0.00115349 W
                Runtime Dynamic = 0.0257035 W

              ROB:
                Area = 0.841232 mm^2
                Peak Dynamic = 1.55892 W
                Subthreshold Leakage = 0.0178624 W
                Subthreshold Leakage with power gating = 0.00897339 W
                Gate Leakage = 0.000856399 W
                Runtime Dynamic = 0.0302441 W

          Integer ALUs (Count: 6 ):
            Area = 0.47087 mm^2
            Peak Dynamic = 0.0244488 W
            Subthreshold Leakage = 0.40222 W
            Subthreshold Leakage with power gating = 0.150833 W
            Gate Leakage = 0.0265291 W
            Runtime Dynamic = 0.125082 W

          Floating Point Units (FPUs) (Count: 2 ):
            Area = 4.6585 mm^2
            Peak Dynamic = 0.00625172 W
            Subthreshold Leakage = 0.994829 W
            Subthreshold Leakage with power gating = 0.373061 W
            Gate Leakage = 0.0656156 W
            Runtime Dynamic = 0.306783 W

          Complex ALUs (Mul/Div) (Count: 1 ):
            Area = 0.235435 mm^2
            Peak Dynamic = 0.0011119 W
            Subthreshold Leakage = 0.20111 W
            Subthreshold Leakage with power gating = 0.0754163 W
            Gate Leakage = 0.0132646 W
            Runtime Dynamic = 0.203562 W

          Results Broadcast Bus:
            Area Overhead = 0.0442632 mm^2
            Peak Dynamic = 0.017568 W
            Subthreshold Leakage = 0.0920413 W
            Subthreshold Leakage with power gating = 0.0345155 W
            Gate Leakage = 0.00607074 W
            Runtime Dynamic = 0.05097 W

    L2
    Area = 22.2273 mm^2
    Peak Dynamic = 0.0849837 W
    Subthreshold Leakage = 4.28281 W
    Subthreshold Leakage with power gating = 1.92539 W
    Gate Leakage = 0.0518439 W
    Runtime Dynamic = 0.0136683 W

*****************************************************************************************
Core:
      Area = 52.0221 mm^2
      Peak Dynamic = 14.1476 W
      Subthreshold Leakage = 9.78705 W
      Subthreshold Leakage with power gating = 4.15395 W
      Gate Leakage = 0.421566 W
      Runtime Dynamic = 1.09131 W

      Instruction Fetch Unit:
        Area = 7.57986 mm^2
        Peak Dynamic = 2.81384 W
        Subthreshold Leakage = 1.0522 W
        Subthreshold Leakage with power gating = 0.455066 W
        Gate Leakage = 0.0712372 W
        Runtime Dynamic = 0.0487127 W

          Instruction Cache:
            Area = 4.86613 mm^2
            Peak Dynamic = 0.575425 W
            Subthreshold Leakage = 0.486629 W
            Subthreshold Leakage with power gating = 0.22691 W
            Gate Leakage = 0.0421203 W
            Runtime Dynamic = 0.0182605 W

          Branch Target Buffer:
            Area = 0.64954 mm^2
            Peak Dynamic = 0.177867 W
            Subthreshold Leakage = 0.0811682 W
            Subthreshold Leakage with power gating = 0.0435357 W
            Gate Leakage = 0.00272758 W
            Runtime Dynamic = 0.00188673 W

          Branch Predictor:
            Area = 0.138516 mm^2
            Peak Dynamic = 0.0597838 W
            Subthreshold Leakage = 0.0199703 W
            Subthreshold Leakage with power gating = 0.0103282 W
            Gate Leakage = 0.000757657 W
            Runtime Dynamic = 0.000645586 W

              Global Predictor:
                Area = 0.0435221 mm^2
                Peak Dynamic = 0.0168831 W
                Subthreshold Leakage = 0.00759719 W
                Subthreshold Leakage with power gating = 0.0039236 W
                Gate Leakage = 0.000278362 W
                Runtime Dynamic = 0.000192237 W

              Local Predictor:
              L1_Local Predictor:
                Area = 0.0257064 mm^2
                Peak Dynamic = 0.0142575 W
                Subthreshold Leakage = 0.00384344 W
                Subthreshold Leakage with power gating = 0.00198631 W
                Gate Leakage = 0.000154548 W
                Runtime Dynamic = 0.000166218 W

              L2_Local Predictor:
                Area = 0.0151917 mm^2
                Peak Dynamic = 0.00527447 W
                Subthreshold Leakage = 0.00181347 W
                Subthreshold Leakage with power gating = 0.000957045 W
                Gate Leakage = 8.00196e-05 W
                Runtime Dynamic = 6.36786e-05 W

              Chooser:
                Area = 0.0435221 mm^2
                Peak Dynamic = 0.0168831 W
                Subthreshold Leakage = 0.00759719 W
                Subthreshold Leakage with power gating = 0.0039236 W
                Gate Leakage = 0.000278362 W
                Runtime Dynamic = 0.000192237 W

              RAS:
                Area = 0.0105732 mm^2
                Peak Dynamic = 0.0117602 W
                Subthreshold Leakage = 0.000932505 W
                Subthreshold Leakage with power gating = 0.000494733 W
                Gate Leakage = 4.63858e-05 W
                Runtime Dynamic = 9.48948e-05 W

          Instruction Buffer:
            Area = 0.0226323 mm^2
            Peak Dynamic = 0.606827 W
            Subthreshold Leakage = 0.00151885 W
            Subthreshold Leakage with power gating = 0.000701682 W
            Gate Leakage = 6.83558e-05 W
            Runtime Dynamic = 0.00635052 W

          Instruction Decoder:
            Area = 1.85799 mm^2
            Peak Dynamic = 1.37404 W
            Subthreshold Leakage = 0.442943 W
            Subthreshold Leakage with power gating = 0.166104 W
            Gate Leakage = 0.0222493 W
            Runtime Dynamic = 0.0215692 W

      Renaming Unit:
        Area = 0.369768 mm^2
        Peak Dynamic = 4.56169 W
        Subthreshold Leakage = 0.070483 W
        Subthreshold Leakage with power gating = 0.0362779 W
        Gate Leakage = 0.00863632 W
        Runtime Dynamic = 0.018288 W

          Int Front End RAT:
            Area = 0.114751 mm^2
            Peak Dynamic = 0.86945 W
            Subthreshold Leakage = 0.00611897 W
            Subthreshold Leakage with power gating = 0.00348781 W
            Gate Leakage = 0.00038343 W
            Runtime Dynamic = 0.0128583 W

          FP Front End RAT:
            Area = 0.168486 mm^2
            Peak Dynamic = 3.33511 W
            Subthreshold Leakage = 0.0437281 W
            Subthreshold Leakage with power gating = 0.024925 W
            Gate Leakage = 0.00489731 W
            Runtime Dynamic = 0.00412012 W

          Free List:
            Area = 0.0414755 mm^2
            Peak Dynamic = 0.0401324 W
            Subthreshold Leakage = 0.000670426 W
            Subthreshold Leakage with power gating = 0.000377987 W
            Gate Leakage = 4.15911e-05 W
            Runtime Dynamic = 0.00130955 W

      Load Store Unit:
        Area = 8.80969 mm^2
        Peak Dynamic = 1.58366 W
        Subthreshold Leakage = 0.591622 W
        Subthreshold Leakage with power gating = 0.283406 W
        Gate Leakage = 0.0351387 W
        Runtime Dynamic = 0.213027 W

          Data Cache:
            Area = 6.84535 mm^2
            Peak Dynamic = 1.53757 W
            Subthreshold Leakage = 0.527675 W
            Subthreshold Leakage with power gating = 0.25085 W
            Gate Leakage = 0.0279261 W
            Runtime Dynamic = 0.155369 W

          LoadQ:
            Area = 0.0836782 mm^2
            Peak Dynamic = 0.00972028 W
            Subthreshold Leakage = 0.00941961 W
            Subthreshold Leakage with power gating = 0.00536918 W
            Gate Leakage = 0.00059896 W
            Runtime Dynamic = 0.0097204 W

          StoreQ:
            Area = 0.322079 mm^2
            Peak Dynamic = 0.0239686 W
            Subthreshold Leakage = 0.0345621 W
            Subthreshold Leakage with power gating = 0.0197004 W
            Gate Leakage = 0.00329971 W
            Runtime Dynamic = 0.0479377 W

      Memory Management Unit:
        Area = 0.434579 mm^2
        Peak Dynamic = 0.19832 W
        Subthreshold Leakage = 0.0769113 W
        Subthreshold Leakage with power gating = 0.0399462 W
        Gate Leakage = 0.00813591 W
        Runtime Dynamic = 0.0106138 W

          Itlb:
            Area = 0.301552 mm^2
            Peak Dynamic = 0.0251161 W
            Subthreshold Leakage = 0.0413758 W
            Subthreshold Leakage with power gating = 0.0235842 W
            Gate Leakage = 0.00393464 W
            Runtime Dynamic = 0.00141297 W

          Dtlb:
            Area = 0.0879726 mm^2
            Peak Dynamic = 0.00850652 W
            Subthreshold Leakage = 0.0155699 W
            Subthreshold Leakage with power gating = 0.00887485 W
            Gate Leakage = 0.00088729 W
            Runtime Dynamic = 0.00920078 W

      Execution Unit:
        Area = 8.2042 mm^2
        Peak Dynamic = 4.9067 W
        Subthreshold Leakage = 1.83518 W
        Subthreshold Leakage with power gating = 0.709678 W
        Gate Leakage = 0.122718 W
        Runtime Dynamic = 0.787156 W

          Register Files:
            Area = 0.570804 mm^2
            Peak Dynamic = 0.00804633 W
            Subthreshold Leakage = 0.0101387 W
            Subthreshold Leakage with power gating = 0.00423643 W
            Gate Leakage = 0.000622708 W
            Runtime Dynamic = 0.00749923 W

              Integer RF:
                Area = 0.362673 mm^2
                Peak Dynamic = 0.00686525 W
                Subthreshold Leakage = 0.00614175 W
                Subthreshold Leakage with power gating = 0.00246675 W
                Gate Leakage = 0.00038992 W
                Runtime Dynamic = 0.006606 W

              Floating Point RF:
                Area = 0.208131 mm^2
                Peak Dynamic = 0.00118108 W
                Subthreshold Leakage = 0.00399698 W
                Subthreshold Leakage with power gating = 0.00176968 W
                Gate Leakage = 0.000232788 W
                Runtime Dynamic = 0.000893227 W

          Instruction Scheduler:
            Area = 2.17927 mm^2
            Peak Dynamic = 4.84781 W
            Subthreshold Leakage = 0.114878 W
            Subthreshold Leakage with power gating = 0.0641291 W
            Gate Leakage = 0.00730101 W
            Runtime Dynamic = 0.0962859 W

              Instruction Window:
                Area = 1.00996 mm^2
                Peak Dynamic = 2.07911 W
                Subthreshold Leakage = 0.0800117 W
                Subthreshold Leakage with power gating = 0.0455351 W
                Gate Leakage = 0.00529112 W
                Runtime Dynamic = 0.0426682 W

              FP Instruction Window:
                Area = 0.328073 mm^2
                Peak Dynamic = 1.20978 W
                Subthreshold Leakage = 0.017004 W
                Subthreshold Leakage with power gating = 0.00962066 W
                Gate Leakage = 0.00115349 W
                Runtime Dynamic = 0.0246404 W

              ROB:
                Area = 0.841232 mm^2
                Peak Dynamic = 1.55892 W
                Subthreshold Leakage = 0.0178624 W
                Subthreshold Leakage with power gating = 0.00897339 W
                Gate Leakage = 0.000856399 W
                Runtime Dynamic = 0.0289772 W

          Integer ALUs (Count: 6 ):
            Area = 0.47087 mm^2
            Peak Dynamic = 0.0233968 W
            Subthreshold Leakage = 0.40222 W
            Subthreshold Leakage with power gating = 0.150833 W
            Gate Leakage = 0.0265291 W
            Runtime Dynamic = 0.124077 W

          Floating Point Units (FPUs) (Count: 2 ):
            Area = 4.6585 mm^2
            Peak Dynamic = 0.00625172 W
            Subthreshold Leakage = 0.994829 W
            Subthreshold Leakage with power gating = 0.373061 W
            Gate Leakage = 0.0656156 W
            Runtime Dynamic = 0.306783 W

          Complex ALUs (Mul/Div) (Count: 1 ):
            Area = 0.235435 mm^2
            Peak Dynamic = 0.0011119 W
            Subthreshold Leakage = 0.20111 W
            Subthreshold Leakage with power gating = 0.0754163 W
            Gate Leakage = 0.0132646 W
            Runtime Dynamic = 0.203562 W

          Results Broadcast Bus:
            Area Overhead = 0.0442632 mm^2
            Peak Dynamic = 0.0168939 W
            Subthreshold Leakage = 0.0920413 W
            Subthreshold Leakage with power gating = 0.0345155 W
            Gate Leakage = 0.00607074 W
            Runtime Dynamic = 0.0489497 W

    L2
    Area = 22.2273 mm^2
    Peak Dynamic = 0.0833951 W
    Subthreshold Leakage = 4.28281 W
    Subthreshold Leakage with power gating = 1.92539 W
    Gate Leakage = 0.0518439 W
    Runtime Dynamic = 0.0135085 W

*****************************************************************************************
Core:
      Area = 52.0221 mm^2
      Peak Dynamic = 14.3083 W
      Subthreshold Leakage = 9.78705 W
      Subthreshold Leakage with power gating = 4.15395 W
      Gate Leakage = 0.421566 W
      Runtime Dynamic = 1.15812 W

      Instruction Fetch Unit:
        Area = 7.57986 mm^2
        Peak Dynamic = 2.90717 W
        Subthreshold Leakage = 1.0522 W
        Subthreshold Leakage with power gating = 0.455066 W
        Gate Leakage = 0.0712372 W
        Runtime Dynamic = 0.0535594 W

          Instruction Cache:
            Area = 4.86613 mm^2
            Peak Dynamic = 0.665628 W
            Subthreshold Leakage = 0.486629 W
            Subthreshold Leakage with power gating = 0.22691 W
            Gate Leakage = 0.0421203 W
            Runtime Dynamic = 0.0182636 W

          Branch Target Buffer:
            Area = 0.64954 mm^2
            Peak Dynamic = 0.177867 W
            Subthreshold Leakage = 0.0811682 W
            Subthreshold Leakage with power gating = 0.0435357 W
            Gate Leakage = 0.00272758 W
            Runtime Dynamic = 0.0022368 W

          Branch Predictor:
            Area = 0.138516 mm^2
            Peak Dynamic = 0.0597838 W
            Subthreshold Leakage = 0.0199703 W
            Subthreshold Leakage with power gating = 0.0103282 W
            Gate Leakage = 0.000757657 W
            Runtime Dynamic = 0.000762505 W

              Global Predictor:
                Area = 0.0435221 mm^2
                Peak Dynamic = 0.0168831 W
                Subthreshold Leakage = 0.00759719 W
                Subthreshold Leakage with power gating = 0.0039236 W
                Gate Leakage = 0.000278362 W
                Runtime Dynamic = 0.000227862 W

              Local Predictor:
              L1_Local Predictor:
                Area = 0.0257064 mm^2
                Peak Dynamic = 0.0142575 W
                Subthreshold Leakage = 0.00384344 W
                Subthreshold Leakage with power gating = 0.00198631 W
                Gate Leakage = 0.000154548 W
                Runtime Dynamic = 0.00019701 W

              L2_Local Predictor:
                Area = 0.0151917 mm^2
                Peak Dynamic = 0.00527447 W
                Subthreshold Leakage = 0.00181347 W
                Subthreshold Leakage with power gating = 0.000957045 W
                Gate Leakage = 8.00196e-05 W
                Runtime Dynamic = 7.54686e-05 W

              Chooser:
                Area = 0.0435221 mm^2
                Peak Dynamic = 0.0168831 W
                Subthreshold Leakage = 0.00759719 W
                Subthreshold Leakage with power gating = 0.0039236 W
                Gate Leakage = 0.000278362 W
                Runtime Dynamic = 0.000227862 W

              RAS:
                Area = 0.0105732 mm^2
                Peak Dynamic = 0.0117602 W
                Subthreshold Leakage = 0.000932505 W
                Subthreshold Leakage with power gating = 0.000494733 W
                Gate Leakage = 4.63858e-05 W
                Runtime Dynamic = 0.000109771 W

          Instruction Buffer:
            Area = 0.0226323 mm^2
            Peak Dynamic = 0.606827 W
            Subthreshold Leakage = 0.00151885 W
            Subthreshold Leakage with power gating = 0.000701682 W
            Gate Leakage = 6.83558e-05 W
            Runtime Dynamic = 0.00734604 W

          Instruction Decoder:
            Area = 1.85799 mm^2
            Peak Dynamic = 1.37404 W
            Subthreshold Leakage = 0.442943 W
            Subthreshold Leakage with power gating = 0.166104 W
            Gate Leakage = 0.0222493 W
            Runtime Dynamic = 0.0249504 W

      Renaming Unit:
        Area = 0.369768 mm^2
        Peak Dynamic = 4.56169 W
        Subthreshold Leakage = 0.070483 W
        Subthreshold Leakage with power gating = 0.0362779 W
        Gate Leakage = 0.00863632 W
        Runtime Dynamic = 0.0205062 W

          Int Front End RAT:
            Area = 0.114751 mm^2
            Peak Dynamic = 0.86945 W
            Subthreshold Leakage = 0.00611897 W
            Subthreshold Leakage with power gating = 0.00348781 W
            Gate Leakage = 0.00038343 W
            Runtime Dynamic = 0.0148789 W

          FP Front End RAT:
            Area = 0.168486 mm^2
            Peak Dynamic = 3.33511 W
            Subthreshold Leakage = 0.0437281 W
            Subthreshold Leakage with power gating = 0.024925 W
            Gate Leakage = 0.00489731 W
            Runtime Dynamic = 0.00412012 W

          Free List:
            Area = 0.0414755 mm^2
            Peak Dynamic = 0.0401324 W
            Subthreshold Leakage = 0.000670426 W
            Subthreshold Leakage with power gating = 0.000377987 W
            Gate Leakage = 4.15911e-05 W
            Runtime Dynamic = 0.00150707 W

      Load Store Unit:
        Area = 8.80969 mm^2
        Peak Dynamic = 1.63597 W
        Subthreshold Leakage = 0.591622 W
        Subthreshold Leakage with power gating = 0.283406 W
        Gate Leakage = 0.0351387 W
        Runtime Dynamic = 0.243808 W

          Data Cache:
            Area = 6.84535 mm^2
            Peak Dynamic = 1.58293 W
            Subthreshold Leakage = 0.527675 W
            Subthreshold Leakage with power gating = 0.25085 W
            Gate Leakage = 0.0279261 W
            Runtime Dynamic = 0.177446 W

          LoadQ:
            Area = 0.0836782 mm^2
            Peak Dynamic = 0.0111877 W
            Subthreshold Leakage = 0.00941961 W
            Subthreshold Leakage with power gating = 0.00536918 W
            Gate Leakage = 0.00059896 W
            Runtime Dynamic = 0.0111878 W

          StoreQ:
            Area = 0.322079 mm^2
            Peak Dynamic = 0.027587 W
            Subthreshold Leakage = 0.0345621 W
            Subthreshold Leakage with power gating = 0.0197004 W
            Gate Leakage = 0.00329971 W
            Runtime Dynamic = 0.0551744 W

      Memory Management Unit:
        Area = 0.434579 mm^2
        Peak Dynamic = 0.204478 W
        Subthreshold Leakage = 0.0769113 W
        Subthreshold Leakage with power gating = 0.0399462 W
        Gate Leakage = 0.00813591 W
        Runtime Dynamic = 0.0119071 W

          Itlb:
            Area = 0.301552 mm^2
            Peak Dynamic = 0.0290532 W
            Subthreshold Leakage = 0.0413758 W
            Subthreshold Leakage with power gating = 0.0235842 W
            Gate Leakage = 0.00393464 W
            Runtime Dynamic = 0.00141318 W

          Dtlb:
            Area = 0.0879726 mm^2
            Peak Dynamic = 0.00979071 W
            Subthreshold Leakage = 0.0155699 W
            Subthreshold Leakage with power gating = 0.00887485 W
            Gate Leakage = 0.00088729 W
            Runtime Dynamic = 0.0104938 W

      Execution Unit:
        Area = 8.2042 mm^2
        Peak Dynamic = 4.9145 W
        Subthreshold Leakage = 1.83518 W
        Subthreshold Leakage with power gating = 0.709678 W
        Gate Leakage = 0.122718 W
        Runtime Dynamic = 0.814479 W

          Register Files:
            Area = 0.570804 mm^2
            Peak Dynamic = 0.00905918 W
            Subthreshold Leakage = 0.0101387 W
            Subthreshold Leakage with power gating = 0.00423643 W
            Gate Leakage = 0.000622708 W
            Runtime Dynamic = 0.00867482 W

              Integer RF:
                Area = 0.362673 mm^2
                Peak Dynamic = 0.00787809 W
                Subthreshold Leakage = 0.00614175 W
                Subthreshold Leakage with power gating = 0.00246675 W
                Gate Leakage = 0.00038992 W
                Runtime Dynamic = 0.00764157 W

              Floating Point RF:
                Area = 0.208131 mm^2
                Peak Dynamic = 0.00118108 W
                Subthreshold Leakage = 0.00399698 W
                Subthreshold Leakage with power gating = 0.00176968 W
                Gate Leakage = 0.000232788 W
                Runtime Dynamic = 0.00103325 W

          Instruction Scheduler:
            Area = 2.17927 mm^2
            Peak Dynamic = 4.84781 W
            Subthreshold Leakage = 0.114878 W
            Subthreshold Leakage with power gating = 0.0641291 W
            Gate Leakage = 0.00730101 W
            Runtime Dynamic = 0.11144 W

              Instruction Window:
                Area = 1.00996 mm^2
                Peak Dynamic = 2.07911 W
                Subthreshold Leakage = 0.0800117 W
                Subthreshold Leakage with power gating = 0.0455351 W
                Gate Leakage = 0.00529112 W
                Runtime Dynamic = 0.0493569 W

              FP Instruction Window:
                Area = 0.328073 mm^2
                Peak Dynamic = 1.20978 W
                Subthreshold Leakage = 0.017004 W
                Subthreshold Leakage with power gating = 0.00962066 W
                Gate Leakage = 0.00115349 W
                Runtime Dynamic = 0.028503 W

              ROB:
                Area = 0.841232 mm^2
                Peak Dynamic = 1.55892 W
                Subthreshold Leakage = 0.0178624 W
                Subthreshold Leakage with power gating = 0.00897339 W
                Gate Leakage = 0.000856399 W
                Runtime Dynamic = 0.0335805 W

          Integer ALUs (Count: 6 ):
            Area = 0.47087 mm^2
            Peak Dynamic = 0.027216 W
            Subthreshold Leakage = 0.40222 W
            Subthreshold Leakage with power gating = 0.150833 W
            Gate Leakage = 0.0265291 W
            Runtime Dynamic = 0.127729 W

          Floating Point Units (FPUs) (Count: 2 ):
            Area = 4.6585 mm^2
            Peak Dynamic = 0.00625172 W
            Subthreshold Leakage = 0.994829 W
            Subthreshold Leakage with power gating = 0.373061 W
            Gate Leakage = 0.0656156 W
            Runtime Dynamic = 0.306783 W

          Complex ALUs (Mul/Div) (Count: 1 ):
            Area = 0.235435 mm^2
            Peak Dynamic = 0.0011119 W
            Subthreshold Leakage = 0.20111 W
            Subthreshold Leakage with power gating = 0.0754163 W
            Gate Leakage = 0.0132646 W
            Runtime Dynamic = 0.203562 W

          Results Broadcast Bus:
            Area Overhead = 0.0442632 mm^2
            Peak Dynamic = 0.0193413 W
            Subthreshold Leakage = 0.0920413 W
            Subthreshold Leakage with power gating = 0.0345155 W
            Gate Leakage = 0.00607074 W
            Runtime Dynamic = 0.0562901 W

    L2
    Area = 22.2273 mm^2
    Peak Dynamic = 0.0844695 W
    Subthreshold Leakage = 4.28281 W
    Subthreshold Leakage with power gating = 1.92539 W
    Gate Leakage = 0.0518439 W
    Runtime Dynamic = 0.0138616 W

*****************************************************************************************
Core:
      Area = 52.0221 mm^2
      Peak Dynamic = 13.9916 W
      Subthreshold Leakage = 9.78705 W
      Subthreshold Leakage with power gating = 4.15395 W
      Gate Leakage = 0.421566 W
      Runtime Dynamic = 1.03009 W

      Instruction Fetch Unit:
        Area = 7.57986 mm^2
        Peak Dynamic = 2.73153 W
        Subthreshold Leakage = 1.0522 W
        Subthreshold Leakage with power gating = 0.455066 W
        Gate Leakage = 0.0712372 W
        Runtime Dynamic = 0.0444424 W

          Instruction Cache:
            Area = 4.86613 mm^2
            Peak Dynamic = 0.495862 W
            Subthreshold Leakage = 0.486629 W
            Subthreshold Leakage with power gating = 0.22691 W
            Gate Leakage = 0.0421203 W
            Runtime Dynamic = 0.018263 W

          Branch Target Buffer:
            Area = 0.64954 mm^2
            Peak Dynamic = 0.177867 W
            Subthreshold Leakage = 0.0811682 W
            Subthreshold Leakage with power gating = 0.0435357 W
            Gate Leakage = 0.00272758 W
            Runtime Dynamic = 0.00157787 W

          Branch Predictor:
            Area = 0.138516 mm^2
            Peak Dynamic = 0.0597838 W
            Subthreshold Leakage = 0.0199703 W
            Subthreshold Leakage with power gating = 0.0103282 W
            Gate Leakage = 0.000757657 W
            Runtime Dynamic = 0.000542158 W

              Global Predictor:
                Area = 0.0435221 mm^2
                Peak Dynamic = 0.0168831 W
                Subthreshold Leakage = 0.00759719 W
                Subthreshold Leakage with power gating = 0.0039236 W
                Gate Leakage = 0.000278362 W
                Runtime Dynamic = 0.000160717 W

              Local Predictor:
              L1_Local Predictor:
                Area = 0.0257064 mm^2
                Peak Dynamic = 0.0142575 W
                Subthreshold Leakage = 0.00384344 W
                Subthreshold Leakage with power gating = 0.00198631 W
                Gate Leakage = 0.000154548 W
                Runtime Dynamic = 0.000138951 W

              L2_Local Predictor:
                Area = 0.0151917 mm^2
                Peak Dynamic = 0.00527447 W
                Subthreshold Leakage = 0.00181347 W
                Subthreshold Leakage with power gating = 0.000957045 W
                Gate Leakage = 8.00196e-05 W
                Runtime Dynamic = 5.32249e-05 W

              Chooser:
                Area = 0.0435221 mm^2
                Peak Dynamic = 0.0168831 W
                Subthreshold Leakage = 0.00759719 W
                Subthreshold Leakage with power gating = 0.0039236 W
                Gate Leakage = 0.000278362 W
                Runtime Dynamic = 0.000160717 W

              RAS:
                Area = 0.0105732 mm^2
                Peak Dynamic = 0.0117602 W
                Subthreshold Leakage = 0.000932505 W
                Subthreshold Leakage with power gating = 0.000494733 W
                Gate Leakage = 4.63858e-05 W
                Runtime Dynamic = 8.17722e-05 W

          Instruction Buffer:
            Area = 0.0226323 mm^2
            Peak Dynamic = 0.606827 W
            Subthreshold Leakage = 0.00151885 W
            Subthreshold Leakage with power gating = 0.000701682 W
            Gate Leakage = 6.83558e-05 W
            Runtime Dynamic = 0.00547245 W

          Instruction Decoder:
            Area = 1.85799 mm^2
            Peak Dynamic = 1.37404 W
            Subthreshold Leakage = 0.442943 W
            Subthreshold Leakage with power gating = 0.166104 W
            Gate Leakage = 0.0222493 W
            Runtime Dynamic = 0.0185869 W

      Renaming Unit:
        Area = 0.369768 mm^2
        Peak Dynamic = 4.56169 W
        Subthreshold Leakage = 0.070483 W
        Subthreshold Leakage with power gating = 0.0362779 W
        Gate Leakage = 0.00863632 W
        Runtime Dynamic = 0.0163316 W

          Int Front End RAT:
            Area = 0.114751 mm^2
            Peak Dynamic = 0.86945 W
            Subthreshold Leakage = 0.00611897 W
            Subthreshold Leakage with power gating = 0.00348781 W
            Gate Leakage = 0.00038343 W
            Runtime Dynamic = 0.0110761 W

          FP Front End RAT:
            Area = 0.168486 mm^2
            Peak Dynamic = 3.33511 W
            Subthreshold Leakage = 0.0437281 W
            Subthreshold Leakage with power gating = 0.024925 W
            Gate Leakage = 0.00489731 W
            Runtime Dynamic = 0.00412012 W

          Free List:
            Area = 0.0414755 mm^2
            Peak Dynamic = 0.0401324 W
            Subthreshold Leakage = 0.000670426 W
            Subthreshold Leakage with power gating = 0.000377987 W
            Gate Leakage = 4.15911e-05 W
            Runtime Dynamic = 0.00113534 W

      Load Store Unit:
        Area = 8.80969 mm^2
        Peak Dynamic = 1.53751 W
        Subthreshold Leakage = 0.591622 W
        Subthreshold Leakage with power gating = 0.283406 W
        Gate Leakage = 0.0351387 W
        Runtime Dynamic = 0.184925 W

          Data Cache:
            Area = 6.84535 mm^2
            Peak Dynamic = 1.49756 W
            Subthreshold Leakage = 0.527675 W
            Subthreshold Leakage with power gating = 0.25085 W
            Gate Leakage = 0.0279261 W
            Runtime Dynamic = 0.134946 W

          LoadQ:
            Area = 0.0836782 mm^2
            Peak Dynamic = 0.00842582 W
            Subthreshold Leakage = 0.00941961 W
            Subthreshold Leakage with power gating = 0.00536918 W
            Gate Leakage = 0.00059896 W
            Runtime Dynamic = 0.00842574 W

          StoreQ:
            Area = 0.322079 mm^2
            Peak Dynamic = 0.0207766 W
            Subthreshold Leakage = 0.0345621 W
            Subthreshold Leakage with power gating = 0.0197004 W
            Gate Leakage = 0.00329971 W
            Runtime Dynamic = 0.0415529 W

      Memory Management Unit:
        Area = 0.434579 mm^2
        Peak Dynamic = 0.192889 W
        Subthreshold Leakage = 0.0769113 W
        Subthreshold Leakage with power gating = 0.0399462 W
        Gate Leakage = 0.00813591 W
        Runtime Dynamic = 0.00935421 W

          Itlb:
            Area = 0.301552 mm^2
            Peak Dynamic = 0.0216433 W
            Subthreshold Leakage = 0.0413758 W
            Subthreshold Leakage with power gating = 0.0235842 W
            Gate Leakage = 0.00393464 W
            Runtime Dynamic = 0.00141316 W

          Dtlb:
            Area = 0.0879726 mm^2
            Peak Dynamic = 0.0073737 W
            Subthreshold Leakage = 0.0155699 W
            Subthreshold Leakage with power gating = 0.00887485 W
            Gate Leakage = 0.00088729 W
            Runtime Dynamic = 0.00794101 W

      Execution Unit:
        Area = 8.2042 mm^2
        Peak Dynamic = 4.89982 W
        Subthreshold Leakage = 1.83518 W
        Subthreshold Leakage with power gating = 0.709678 W
        Gate Leakage = 0.122718 W
        Runtime Dynamic = 0.763057 W

          Register Files:
            Area = 0.570804 mm^2
            Peak Dynamic = 0.00715323 W
            Subthreshold Leakage = 0.0101387 W
            Subthreshold Leakage with power gating = 0.00423643 W
            Gate Leakage = 0.000622708 W
            Runtime Dynamic = 0.00646232 W

              Integer RF:
                Area = 0.362673 mm^2
                Peak Dynamic = 0.00597214 W
                Subthreshold Leakage = 0.00614175 W
                Subthreshold Leakage with power gating = 0.00246675 W
                Gate Leakage = 0.00038992 W
                Runtime Dynamic = 0.0056926 W

              Floating Point RF:
                Area = 0.208131 mm^2
                Peak Dynamic = 0.00118108 W
                Subthreshold Leakage = 0.00399698 W
                Subthreshold Leakage with power gating = 0.00176968 W
                Gate Leakage = 0.000232788 W
                Runtime Dynamic = 0.000769721 W

          Instruction Scheduler:
            Area = 2.17927 mm^2
            Peak Dynamic = 4.84781 W
            Subthreshold Leakage = 0.114878 W
            Subthreshold Leakage with power gating = 0.0641291 W
            Gate Leakage = 0.00730101 W
            Runtime Dynamic = 0.0829188 W

              Instruction Window:
                Area = 1.00996 mm^2
                Peak Dynamic = 2.07911 W
                Subthreshold Leakage = 0.0800117 W
                Subthreshold Leakage with power gating = 0.0455351 W
                Gate Leakage = 0.00529112 W
                Runtime Dynamic = 0.0367686 W

              FP Instruction Window:
                Area = 0.328073 mm^2
                Peak Dynamic = 1.20978 W
                Subthreshold Leakage = 0.017004 W
                Subthreshold Leakage with power gating = 0.00962066 W
                Gate Leakage = 0.00115349 W
                Runtime Dynamic = 0.0212334 W

              ROB:
                Area = 0.841232 mm^2
                Peak Dynamic = 1.55892 W
                Subthreshold Leakage = 0.0178624 W
                Subthreshold Leakage with power gating = 0.00897339 W
                Gate Leakage = 0.000856399 W
                Runtime Dynamic = 0.0249168 W

          Integer ALUs (Count: 6 ):
            Area = 0.47087 mm^2
            Peak Dynamic = 0.0200292 W
            Subthreshold Leakage = 0.40222 W
            Subthreshold Leakage with power gating = 0.150833 W
            Gate Leakage = 0.0265291 W
            Runtime Dynamic = 0.120856 W

          Floating Point Units (FPUs) (Count: 2 ):
            Area = 4.6585 mm^2
            Peak Dynamic = 0.00625172 W
            Subthreshold Leakage = 0.994829 W
            Subthreshold Leakage with power gating = 0.373061 W
            Gate Leakage = 0.0656156 W
            Runtime Dynamic = 0.306783 W

          Complex ALUs (Mul/Div) (Count: 1 ):
            Area = 0.235435 mm^2
            Peak Dynamic = 0.0011119 W
            Subthreshold Leakage = 0.20111 W
            Subthreshold Leakage with power gating = 0.0754163 W
            Gate Leakage = 0.0132646 W
            Runtime Dynamic = 0.203562 W

          Results Broadcast Bus:
            Area Overhead = 0.0442632 mm^2
            Peak Dynamic = 0.0147358 W
            Subthreshold Leakage = 0.0920413 W
            Subthreshold Leakage with power gating = 0.0345155 W
            Gate Leakage = 0.00607074 W
            Runtime Dynamic = 0.0424753 W

    L2
    Area = 22.2273 mm^2
    Peak Dynamic = 0.0681706 W
    Subthreshold Leakage = 4.28281 W
    Subthreshold Leakage with power gating = 1.92539 W
    Gate Leakage = 0.0518439 W
    Runtime Dynamic = 0.0119766 W

*****************************************************************************************
Core:
      Area = 52.0221 mm^2
      Peak Dynamic = 13.8283 W
      Subthreshold Leakage = 9.78705 W
      Subthreshold Leakage with power gating = 4.15395 W
      Gate Leakage = 0.421566 W
      Runtime Dynamic = 0.965452 W

      Instruction Fetch Unit:
        Area = 7.57986 mm^2
        Peak Dynamic = 2.6462 W
        Subthreshold Leakage = 1.0522 W
        Subthreshold Leakage with power gating = 0.455066 W
        Gate Leakage = 0.0712372 W
        Runtime Dynamic = 0.0400111 W

          Instruction Cache:
            Area = 4.86613 mm^2
            Peak Dynamic = 0.413385 W
            Subthreshold Leakage = 0.486629 W
            Subthreshold Leakage with power gating = 0.22691 W
            Gate Leakage = 0.0421203 W
            Runtime Dynamic = 0.0182605 W

          Branch Target Buffer:
            Area = 0.64954 mm^2
            Peak Dynamic = 0.177867 W
            Subthreshold Leakage = 0.0811682 W
            Subthreshold Leakage with power gating = 0.0435357 W
            Gate Leakage = 0.00272758 W
            Runtime Dynamic = 0.00125773 W

          Branch Predictor:
            Area = 0.138516 mm^2
            Peak Dynamic = 0.0597838 W
            Subthreshold Leakage = 0.0199703 W
            Subthreshold Leakage with power gating = 0.0103282 W
            Gate Leakage = 0.000757657 W
            Runtime Dynamic = 0.000435216 W

              Global Predictor:
                Area = 0.0435221 mm^2
                Peak Dynamic = 0.0168831 W
                Subthreshold Leakage = 0.00759719 W
                Subthreshold Leakage with power gating = 0.0039236 W
                Gate Leakage = 0.000278362 W
                Runtime Dynamic = 0.00012813 W

              Local Predictor:
              L1_Local Predictor:
                Area = 0.0257064 mm^2
                Peak Dynamic = 0.0142575 W
                Subthreshold Leakage = 0.00384344 W
                Subthreshold Leakage with power gating = 0.00198631 W
                Gate Leakage = 0.000154548 W
                Runtime Dynamic = 0.000110783 W

              L2_Local Predictor:
                Area = 0.0151917 mm^2
                Peak Dynamic = 0.00527447 W
                Subthreshold Leakage = 0.00181347 W
                Subthreshold Leakage with power gating = 0.000957045 W
                Gate Leakage = 8.00196e-05 W
                Runtime Dynamic = 4.24385e-05 W

              Chooser:
                Area = 0.0435221 mm^2
                Peak Dynamic = 0.0168831 W
                Subthreshold Leakage = 0.00759719 W
                Subthreshold Leakage with power gating = 0.0039236 W
                Gate Leakage = 0.000278362 W
                Runtime Dynamic = 0.00012813 W

              RAS:
                Area = 0.0105732 mm^2
                Peak Dynamic = 0.0117602 W
                Subthreshold Leakage = 0.000932505 W
                Subthreshold Leakage with power gating = 0.000494733 W
                Gate Leakage = 4.63858e-05 W
                Runtime Dynamic = 6.81732e-05 W

          Instruction Buffer:
            Area = 0.0226323 mm^2
            Peak Dynamic = 0.606827 W
            Subthreshold Leakage = 0.00151885 W
            Subthreshold Leakage with power gating = 0.000701682 W
            Gate Leakage = 6.83558e-05 W
            Runtime Dynamic = 0.00456223 W

          Instruction Decoder:
            Area = 1.85799 mm^2
            Peak Dynamic = 1.37404 W
            Subthreshold Leakage = 0.442943 W
            Subthreshold Leakage with power gating = 0.166104 W
            Gate Leakage = 0.0222493 W
            Runtime Dynamic = 0.0154954 W

      Renaming Unit:
        Area = 0.369768 mm^2
        Peak Dynamic = 4.56169 W
        Subthreshold Leakage = 0.070483 W
        Subthreshold Leakage with power gating = 0.0362779 W
        Gate Leakage = 0.00863632 W
        Runtime Dynamic = 0.0143035 W

          Int Front End RAT:
            Area = 0.114751 mm^2
            Peak Dynamic = 0.86945 W
            Subthreshold Leakage = 0.00611897 W
            Subthreshold Leakage with power gating = 0.00348781 W
            Gate Leakage = 0.00038343 W
            Runtime Dynamic = 0.00922858 W

          FP Front End RAT:
            Area = 0.168486 mm^2
            Peak Dynamic = 3.33511 W
            Subthreshold Leakage = 0.0437281 W
            Subthreshold Leakage with power gating = 0.024925 W
            Gate Leakage = 0.00489731 W
            Runtime Dynamic = 0.00412012 W

          Free List:
            Area = 0.0414755 mm^2
            Peak Dynamic = 0.0401324 W
            Subthreshold Leakage = 0.000670426 W
            Subthreshold Leakage with power gating = 0.000377987 W
            Gate Leakage = 4.15911e-05 W
            Runtime Dynamic = 0.000954746 W

      Load Store Unit:
        Area = 8.80969 mm^2
        Peak Dynamic = 1.48967 W
        Subthreshold Leakage = 0.591622 W
        Subthreshold Leakage with power gating = 0.283406 W
        Gate Leakage = 0.0351387 W
        Runtime Dynamic = 0.155265 W

          Data Cache:
            Area = 6.84535 mm^2
            Peak Dynamic = 1.45608 W
            Subthreshold Leakage = 0.527675 W
            Subthreshold Leakage with power gating = 0.25085 W
            Gate Leakage = 0.0279261 W
            Runtime Dynamic = 0.113245 W

          LoadQ:
            Area = 0.0836782 mm^2
            Peak Dynamic = 0.00708389 W
            Subthreshold Leakage = 0.00941961 W
            Subthreshold Leakage with power gating = 0.00536918 W
            Gate Leakage = 0.00059896 W
            Runtime Dynamic = 0.00708399 W

          StoreQ:
            Area = 0.322079 mm^2
            Peak Dynamic = 0.0174677 W
            Subthreshold Leakage = 0.0345621 W
            Subthreshold Leakage with power gating = 0.0197004 W
            Gate Leakage = 0.00329971 W
            Runtime Dynamic = 0.0349358 W

      Memory Management Unit:
        Area = 0.434579 mm^2
        Peak Dynamic = 0.187259 W
        Subthreshold Leakage = 0.0769113 W
        Subthreshold Leakage with power gating = 0.0399462 W
        Gate Leakage = 0.00813591 W
        Runtime Dynamic = 0.00803503 W

          Itlb:
            Area = 0.301552 mm^2
            Peak Dynamic = 0.0180434 W
            Subthreshold Leakage = 0.0413758 W
            Subthreshold Leakage with power gating = 0.0235842 W
            Gate Leakage = 0.00393464 W
            Runtime Dynamic = 0.00141297 W

          Dtlb:
            Area = 0.0879726 mm^2
            Peak Dynamic = 0.00619933 W
            Subthreshold Leakage = 0.0155699 W
            Subthreshold Leakage with power gating = 0.00887485 W
            Gate Leakage = 0.00088729 W
            Runtime Dynamic = 0.00662202 W

      Execution Unit:
        Area = 8.2042 mm^2
        Peak Dynamic = 4.89269 W
        Subthreshold Leakage = 1.83518 W
        Subthreshold Leakage with power gating = 0.709678 W
        Gate Leakage = 0.122718 W
        Runtime Dynamic = 0.738076 W

          Register Files:
            Area = 0.570804 mm^2
            Peak Dynamic = 0.00622741 W
            Subthreshold Leakage = 0.0101387 W
            Subthreshold Leakage with power gating = 0.00423643 W
            Gate Leakage = 0.000622708 W
            Runtime Dynamic = 0.00538746 W

              Integer RF:
                Area = 0.362673 mm^2
                Peak Dynamic = 0.00504633 W
                Subthreshold Leakage = 0.00614175 W
                Subthreshold Leakage with power gating = 0.00246675 W
                Gate Leakage = 0.00038992 W
                Runtime Dynamic = 0.00474576 W

              Floating Point RF:
                Area = 0.208131 mm^2
                Peak Dynamic = 0.00118108 W
                Subthreshold Leakage = 0.00399698 W
                Subthreshold Leakage with power gating = 0.00176968 W
                Gate Leakage = 0.000232788 W
                Runtime Dynamic = 0.000641699 W

          Instruction Scheduler:
            Area = 2.17927 mm^2
            Peak Dynamic = 4.84781 W
            Subthreshold Leakage = 0.114878 W
            Subthreshold Leakage with power gating = 0.0641291 W
            Gate Leakage = 0.00730101 W
            Runtime Dynamic = 0.0690625 W

              Instruction Window:
                Area = 1.00996 mm^2
                Peak Dynamic = 2.07911 W
                Subthreshold Leakage = 0.0800117 W
                Subthreshold Leakage with power gating = 0.0455351 W
                Gate Leakage = 0.00529112 W
                Runtime Dynamic = 0.0306529 W

              FP Instruction Window:
                Area = 0.328073 mm^2
                Peak Dynamic = 1.20978 W
                Subthreshold Leakage = 0.017004 W
                Subthreshold Leakage with power gating = 0.00962066 W
                Gate Leakage = 0.00115349 W
                Runtime Dynamic = 0.0177017 W

              ROB:
                Area = 0.841232 mm^2
                Peak Dynamic = 1.55892 W
                Subthreshold Leakage = 0.0178624 W
                Subthreshold Leakage with power gating = 0.00897339 W
                Gate Leakage = 0.000856399 W
                Runtime Dynamic = 0.0207079 W

          Integer ALUs (Count: 6 ):
            Area = 0.47087 mm^2
            Peak Dynamic = 0.0165381 W
            Subthreshold Leakage = 0.40222 W
            Subthreshold Leakage with power gating = 0.150833 W
            Gate Leakage = 0.0265291 W
            Runtime Dynamic = 0.117517 W

          Floating Point Units (FPUs) (Count: 2 ):
            Area = 4.6585 mm^2
            Peak Dynamic = 0.00625172 W
            Subthreshold Leakage = 0.994829 W
            Subthreshold Leakage with power gating = 0.373061 W
            Gate Leakage = 0.0656156 W
            Runtime Dynamic = 0.306783 W

          Complex ALUs (Mul/Div) (Count: 1 ):
            Area = 0.235435 mm^2
            Peak Dynamic = 0.0011119 W
            Subthreshold Leakage = 0.20111 W
            Subthreshold Leakage with power gating = 0.0754163 W
            Gate Leakage = 0.0132646 W
            Runtime Dynamic = 0.203562 W

          Results Broadcast Bus:
            Area Overhead = 0.0442632 mm^2
            Peak Dynamic = 0.0124986 W
            Subthreshold Leakage = 0.0920413 W
            Subthreshold Leakage with power gating = 0.0345155 W
            Gate Leakage = 0.00607074 W
            Runtime Dynamic = 0.0357641 W

    L2
    Area = 22.2273 mm^2
    Peak Dynamic = 0.050779 W
    Subthreshold Leakage = 4.28281 W
    Subthreshold Leakage with power gating = 1.92539 W
    Gate Leakage = 0.0518439 W
    Runtime Dynamic = 0.00976216 W

*****************************************************************************************
Core:
      Area = 52.0221 mm^2
      Peak Dynamic = 14.0514 W
      Subthreshold Leakage = 9.78705 W
      Subthreshold Leakage with power gating = 4.15395 W
      Gate Leakage = 0.421566 W
      Runtime Dynamic = 1.05569 W

      Instruction Fetch Unit:
        Area = 7.57986 mm^2
        Peak Dynamic = 2.76266 W
        Subthreshold Leakage = 1.0522 W
        Subthreshold Leakage with power gating = 0.455066 W
        Gate Leakage = 0.0712372 W
        Runtime Dynamic = 0.0460609 W

          Instruction Cache:
            Area = 4.86613 mm^2
            Peak Dynamic = 0.525948 W
            Subthreshold Leakage = 0.486629 W
            Subthreshold Leakage with power gating = 0.22691 W
            Gate Leakage = 0.0421203 W
            Runtime Dynamic = 0.0182654 W

          Branch Target Buffer:
            Area = 0.64954 mm^2
            Peak Dynamic = 0.177867 W
            Subthreshold Leakage = 0.0811682 W
            Subthreshold Leakage with power gating = 0.0435357 W
            Gate Leakage = 0.00272758 W
            Runtime Dynamic = 0.00169464 W

          Branch Predictor:
            Area = 0.138516 mm^2
            Peak Dynamic = 0.0597838 W
            Subthreshold Leakage = 0.0199703 W
            Subthreshold Leakage with power gating = 0.0103282 W
            Gate Leakage = 0.000757657 W
            Runtime Dynamic = 0.000581369 W

              Global Predictor:
                Area = 0.0435221 mm^2
                Peak Dynamic = 0.0168831 W
                Subthreshold Leakage = 0.00759719 W
                Subthreshold Leakage with power gating = 0.0039236 W
                Gate Leakage = 0.000278362 W
                Runtime Dynamic = 0.000172667 W

              Local Predictor:
              L1_Local Predictor:
                Area = 0.0257064 mm^2
                Peak Dynamic = 0.0142575 W
                Subthreshold Leakage = 0.00384344 W
                Subthreshold Leakage with power gating = 0.00198631 W
                Gate Leakage = 0.000154548 W
                Runtime Dynamic = 0.000149298 W

              L2_Local Predictor:
                Area = 0.0151917 mm^2
                Peak Dynamic = 0.00527447 W
                Subthreshold Leakage = 0.00181347 W
                Subthreshold Leakage with power gating = 0.000957045 W
                Gate Leakage = 8.00196e-05 W
                Runtime Dynamic = 5.71967e-05 W

              Chooser:
                Area = 0.0435221 mm^2
                Peak Dynamic = 0.0168831 W
                Subthreshold Leakage = 0.00759719 W
                Subthreshold Leakage with power gating = 0.0039236 W
                Gate Leakage = 0.000278362 W
                Runtime Dynamic = 0.000172667 W

              RAS:
                Area = 0.0105732 mm^2
                Peak Dynamic = 0.0117602 W
                Subthreshold Leakage = 0.000932505 W
                Subthreshold Leakage with power gating = 0.000494733 W
                Gate Leakage = 4.63858e-05 W
                Runtime Dynamic = 8.67367e-05 W

          Instruction Buffer:
            Area = 0.0226323 mm^2
            Peak Dynamic = 0.606827 W
            Subthreshold Leakage = 0.00151885 W
[...]
                Runtime Dynamic = 0.000183998 W

              RAS:
                Area = 0.0105732 mm^2
                Peak Dynamic = 0.0117602 W
                Subthreshold Leakage = 0.000932505 W
                Subthreshold Leakage with power gating = 0.000494733 W
                Gate Leakage = 4.63858e-05 W
                Runtime Dynamic = 9.14701e-05 W

          Instruction Buffer:
            Area = 0.0226323 mm^2
            Peak Dynamic = 0.606827 W
            Subthreshold Leakage = 0.00151885 W
            Subthreshold Leakage with power gating = 0.000701682 W
            Gate Leakage = 6.83558e-05 W
            Runtime Dynamic = 0.00612146 W

          Instruction Decoder:
            Area = 1.85799 mm^2
            Peak Dynamic = 1.37404 W
            Subthreshold Leakage = 0.442943 W
            Subthreshold Leakage with power gating = 0.166104 W
            Gate Leakage = 0.0222493 W
            Runtime Dynamic = 0.0207912 W

      Renaming Unit:
        Area = 0.369768 mm^2
        Peak Dynamic = 4.56169 W
        Subthreshold Leakage = 0.070483 W
        Subthreshold Leakage with power gating = 0.0362779 W
        Gate Leakage = 0.00863632 W
        Runtime Dynamic = 0.0177776 W

          Int Front End RAT:
            Area = 0.114751 mm^2
            Peak Dynamic = 0.86945 W
            Subthreshold Leakage = 0.00611897 W
            Subthreshold Leakage with power gating = 0.00348781 W
            Gate Leakage = 0.00038343 W
            Runtime Dynamic = 0.0123934 W

          FP Front End RAT:
            Area = 0.168486 mm^2
            Peak Dynamic = 3.33511 W
            Subthreshold Leakage = 0.0437281 W
            Subthreshold Leakage with power gating = 0.024925 W
            Gate Leakage = 0.00489731 W
            Runtime Dynamic = 0.00412012 W

          Free List:
            Area = 0.0414755 mm^2
            Peak Dynamic = 0.0401324 W
            Subthreshold Leakage = 0.000670426 W
            Subthreshold Leakage with power gating = 0.000377987 W
            Gate Leakage = 4.15911e-05 W
            Runtime Dynamic = 0.0012641 W

      Load Store Unit:
        Area = 8.80969 mm^2
        Peak Dynamic = 1.57163 W
        Subthreshold Leakage = 0.591622 W
        Subthreshold Leakage with power gating = 0.283406 W
        Gate Leakage = 0.0351387 W
        Runtime Dynamic = 0.207333 W

          Data Cache:
            Area = 6.84535 mm^2
            Peak Dynamic = 1.52714 W
            Subthreshold Leakage = 0.527675 W
            Subthreshold Leakage with power gating = 0.25085 W
            Gate Leakage = 0.0279261 W
            Runtime Dynamic = 0.151678 W

          LoadQ:
            Area = 0.0836782 mm^2
            Peak Dynamic = 0.00938281 W
            Subthreshold Leakage = 0.00941961 W
            Subthreshold Leakage with power gating = 0.00536918 W
            Gate Leakage = 0.00059896 W
            Runtime Dynamic = 0.0093827 W

          StoreQ:
            Area = 0.322079 mm^2
            Peak Dynamic = 0.0231364 W
            Subthreshold Leakage = 0.0345621 W
            Subthreshold Leakage with power gating = 0.0197004 W
            Gate Leakage = 0.00329971 W
            Runtime Dynamic = 0.0462723 W

      Memory Management Unit:
        Area = 0.434579 mm^2
        Peak Dynamic = 0.196904 W
        Subthreshold Leakage = 0.0769113 W
        Subthreshold Leakage with power gating = 0.0399462 W
        Gate Leakage = 0.00813591 W
        Runtime Dynamic = 0.0102822 W

          Itlb:
            Area = 0.301552 mm^2
            Peak Dynamic = 0.0242101 W
            Subthreshold Leakage = 0.0413758 W
            Subthreshold Leakage with power gating = 0.0235842 W
            Gate Leakage = 0.00393464 W
            Runtime Dynamic = 0.00141297 W

          Dtlb:
            Area = 0.0879726 mm^2
            Peak Dynamic = 0.00821119 W
            Subthreshold Leakage = 0.0155699 W
            Subthreshold Leakage with power gating = 0.00887485 W
            Gate Leakage = 0.00088729 W
            Runtime Dynamic = 0.00886923 W

      Execution Unit:
        Area = 8.2042 mm^2
        Peak Dynamic = 4.9049 W
        Subthreshold Leakage = 1.83518 W
        Subthreshold Leakage with power gating = 0.709678 W
        Gate Leakage = 0.122718 W
        Runtime Dynamic = 0.78087 W

          Register Files:
            Area = 0.570804 mm^2
            Peak Dynamic = 0.00781364 W
            Subthreshold Leakage = 0.0101387 W
            Subthreshold Leakage with power gating = 0.00423643 W
            Gate Leakage = 0.000622708 W
            Runtime Dynamic = 0.00722874 W

              Integer RF:
                Area = 0.362673 mm^2
                Peak Dynamic = 0.00663256 W
                Subthreshold Leakage = 0.00614175 W
                Subthreshold Leakage with power gating = 0.00246675 W
                Gate Leakage = 0.00038992 W
                Runtime Dynamic = 0.00636773 W

              Floating Point RF:
                Area = 0.208131 mm^2
                Peak Dynamic = 0.00118108 W
                Subthreshold Leakage = 0.00399698 W
                Subthreshold Leakage with power gating = 0.00176968 W
                Gate Leakage = 0.000232788 W
                Runtime Dynamic = 0.000861012 W

          Instruction Scheduler:
            Area = 2.17927 mm^2
            Peak Dynamic = 4.84781 W
            Subthreshold Leakage = 0.114878 W
            Subthreshold Leakage with power gating = 0.0641291 W
            Gate Leakage = 0.00730101 W
            Runtime Dynamic = 0.0927988 W

              Instruction Window:
                Area = 1.00996 mm^2
                Peak Dynamic = 2.07911 W
                Subthreshold Leakage = 0.0800117 W
                Subthreshold Leakage with power gating = 0.0455351 W
                Gate Leakage = 0.00529112 W
                Runtime Dynamic = 0.0411292 W

              FP Instruction Window:
                Area = 0.328073 mm^2
                Peak Dynamic = 1.20978 W
                Subthreshold Leakage = 0.017004 W
                Subthreshold Leakage with power gating = 0.00962066 W
                Gate Leakage = 0.00115349 W
                Runtime Dynamic = 0.0237516 W

              ROB:
                Area = 0.841232 mm^2
                Peak Dynamic = 1.55892 W
                Subthreshold Leakage = 0.0178624 W
                Subthreshold Leakage with power gating = 0.00897339 W
                Gate Leakage = 0.000856399 W
                Runtime Dynamic = 0.027918 W

          Integer ALUs (Count: 6 ):
            Area = 0.47087 mm^2
            Peak Dynamic = 0.0225194 W
            Subthreshold Leakage = 0.40222 W
            Subthreshold Leakage with power gating = 0.150833 W
            Gate Leakage = 0.0265291 W
            Runtime Dynamic = 0.123237 W

          Floating Point Units (FPUs) (Count: 2 ):
            Area = 4.6585 mm^2
            Peak Dynamic = 0.00625172 W
            Subthreshold Leakage = 0.994829 W
            Subthreshold Leakage with power gating = 0.373061 W
            Gate Leakage = 0.0656156 W
            Runtime Dynamic = 0.306783 W

          Complex ALUs (Mul/Div) (Count: 1 ):
            Area = 0.235435 mm^2
            Peak Dynamic = 0.0011119 W
            Subthreshold Leakage = 0.20111 W
            Subthreshold Leakage with power gating = 0.0754163 W
            Gate Leakage = 0.0132646 W
            Runtime Dynamic = 0.203562 W

          Results Broadcast Bus:
            Area Overhead = 0.0442632 mm^2
            Peak Dynamic = 0.0163316 W
            Subthreshold Leakage = 0.0920413 W
            Subthreshold Leakage with power gating = 0.0345155 W
            Gate Leakage = 0.00607074 W
            Runtime Dynamic = 0.0472608 W

    L2
    Area = 22.2273 mm^2
    Peak Dynamic = 0.0790702 W
    Subthreshold Leakage = 4.28281 W
    Subthreshold Leakage with power gating = 1.92539 W
    Gate Leakage = 0.0518439 W
    Runtime Dynamic = 0.0149678 W

*****************************************************************************************
Core:
      Area = 52.0221 mm^2
      Peak Dynamic = 13.8026 W
      Subthreshold Leakage = 9.78705 W
      Subthreshold Leakage with power gating = 4.15395 W
      Gate Leakage = 0.421566 W
      Runtime Dynamic = 0.956613 W

      Instruction Fetch Unit:
        Area = 7.57986 mm^2
        Peak Dynamic = 2.63307 W
        Subthreshold Leakage = 1.0522 W
        Subthreshold Leakage with power gating = 0.455066 W
        Gate Leakage = 0.0712372 W
        Runtime Dynamic = 0.0393297 W

          Instruction Cache:
            Area = 4.86613 mm^2
            Peak Dynamic = 0.400693 W
            Subthreshold Leakage = 0.486629 W
            Subthreshold Leakage with power gating = 0.22691 W
            Gate Leakage = 0.0421203 W
            Runtime Dynamic = 0.0182605 W

          Branch Target Buffer:
            Area = 0.64954 mm^2
            Peak Dynamic = 0.177867 W
            Subthreshold Leakage = 0.0811682 W
            Subthreshold Leakage with power gating = 0.0435357 W
            Gate Leakage = 0.00272758 W
            Runtime Dynamic = 0.00120847 W

          Branch Predictor:
            Area = 0.138516 mm^2
            Peak Dynamic = 0.0597838 W
            Subthreshold Leakage = 0.0199703 W
            Subthreshold Leakage with power gating = 0.0103282 W
            Gate Leakage = 0.000757657 W
            Runtime Dynamic = 0.00041877 W

              Global Predictor:
                Area = 0.0435221 mm^2
                Peak Dynamic = 0.0168831 W
                Subthreshold Leakage = 0.00759719 W
                Subthreshold Leakage with power gating = 0.0039236 W
                Gate Leakage = 0.000278362 W
                Runtime Dynamic = 0.000123119 W

              Local Predictor:
              L1_Local Predictor:
                Area = 0.0257064 mm^2
                Peak Dynamic = 0.0142575 W
                Subthreshold Leakage = 0.00384344 W
                Subthreshold Leakage with power gating = 0.00198631 W
                Gate Leakage = 0.000154548 W
                Runtime Dynamic = 0.000106453 W

              L2_Local Predictor:
                Area = 0.0151917 mm^2
                Peak Dynamic = 0.00527447 W
                Subthreshold Leakage = 0.00181347 W
                Subthreshold Leakage with power gating = 0.000957045 W
                Gate Leakage = 8.00196e-05 W
                Runtime Dynamic = 4.07809e-05 W

              Chooser:
                Area = 0.0435221 mm^2
                Peak Dynamic = 0.0168831 W
                Subthreshold Leakage = 0.00759719 W
                Subthreshold Leakage with power gating = 0.0039236 W
                Gate Leakage = 0.000278362 W
                Runtime Dynamic = 0.000123119 W

              RAS:
                Area = 0.0105732 mm^2
                Peak Dynamic = 0.0117602 W
                Subthreshold Leakage = 0.000932505 W
                Subthreshold Leakage with power gating = 0.000494733 W
                Gate Leakage = 4.63858e-05 W
                Runtime Dynamic = 6.60785e-05 W

          Instruction Buffer:
            Area = 0.0226323 mm^2
            Peak Dynamic = 0.606827 W
            Subthreshold Leakage = 0.00151885 W
            Subthreshold Leakage with power gating = 0.000701682 W
            Gate Leakage = 6.83558e-05 W
            Runtime Dynamic = 0.00442217 W

          Instruction Decoder:
            Area = 1.85799 mm^2
            Peak Dynamic = 1.37404 W
            Subthreshold Leakage = 0.442943 W
            Subthreshold Leakage with power gating = 0.166104 W
            Gate Leakage = 0.0222493 W
            Runtime Dynamic = 0.0150197 W

      Renaming Unit:
        Area = 0.369768 mm^2
        Peak Dynamic = 4.56169 W
        Subthreshold Leakage = 0.070483 W
        Subthreshold Leakage with power gating = 0.0362779 W
        Gate Leakage = 0.00863632 W
        Runtime Dynamic = 0.0139914 W

          Int Front End RAT:
            Area = 0.114751 mm^2
            Peak Dynamic = 0.86945 W
            Subthreshold Leakage = 0.00611897 W
            Subthreshold Leakage with power gating = 0.00348781 W
            Gate Leakage = 0.00038343 W
            Runtime Dynamic = 0.00894431 W

          FP Front End RAT:
            Area = 0.168486 mm^2
            Peak Dynamic = 3.33511 W
            Subthreshold Leakage = 0.0437281 W
            Subthreshold Leakage with power gating = 0.024925 W
            Gate Leakage = 0.00489731 W
            Runtime Dynamic = 0.00412012 W

          Free List:
            Area = 0.0414755 mm^2
            Peak Dynamic = 0.0401324 W
            Subthreshold Leakage = 0.000670426 W
            Subthreshold Leakage with power gating = 0.000377987 W
            Gate Leakage = 4.15911e-05 W
            Runtime Dynamic = 0.000926958 W

      Load Store Unit:
        Area = 8.80969 mm^2
        Peak Dynamic = 1.48232 W
        Subthreshold Leakage = 0.591622 W
        Subthreshold Leakage with power gating = 0.283406 W
        Gate Leakage = 0.0351387 W
        Runtime Dynamic = 0.151223 W

          Data Cache:
            Area = 6.84535 mm^2
            Peak Dynamic = 1.44971 W
            Subthreshold Leakage = 0.527675 W
            Subthreshold Leakage with power gating = 0.25085 W
            Gate Leakage = 0.0279261 W
            Runtime Dynamic = 0.110428 W

          LoadQ:
            Area = 0.0836782 mm^2
            Peak Dynamic = 0.00687763 W
            Subthreshold Leakage = 0.00941961 W
            Subthreshold Leakage with power gating = 0.00536918 W
            Gate Leakage = 0.00059896 W
            Runtime Dynamic = 0.00687751 W

          StoreQ:
            Area = 0.322079 mm^2
            Peak Dynamic = 0.0169591 W
            Subthreshold Leakage = 0.0345621 W
            Subthreshold Leakage with power gating = 0.0197004 W
            Gate Leakage = 0.00329971 W
            Runtime Dynamic = 0.0339175 W

      Memory Management Unit:
        Area = 0.434579 mm^2
        Peak Dynamic = 0.186393 W
        Subthreshold Leakage = 0.0769113 W
        Subthreshold Leakage with power gating = 0.0399462 W
        Gate Leakage = 0.00813591 W
        Runtime Dynamic = 0.00782749 W

          Itlb:
            Area = 0.301552 mm^2
            Peak Dynamic = 0.0174894 W
            Subthreshold Leakage = 0.0413758 W
            Subthreshold Leakage with power gating = 0.0235842 W
            Gate Leakage = 0.00393464 W
            Runtime Dynamic = 0.00141297 W

          Dtlb:
            Area = 0.0879726 mm^2
            Peak Dynamic = 0.00601883 W
            Subthreshold Leakage = 0.0155699 W
            Subthreshold Leakage with power gating = 0.00887485 W
            Gate Leakage = 0.00088729 W
            Runtime Dynamic = 0.00641447 W

      Execution Unit:
        Area = 8.2042 mm^2
        Peak Dynamic = 4.8916 W
        Subthreshold Leakage = 1.83518 W
        Subthreshold Leakage with power gating = 0.709678 W
        Gate Leakage = 0.122718 W
        Runtime Dynamic = 0.734232 W

          Register Files:
            Area = 0.570804 mm^2
            Peak Dynamic = 0.00608545 W
            Subthreshold Leakage = 0.0101387 W
            Subthreshold Leakage with power gating = 0.00423643 W
            Gate Leakage = 0.000622708 W
            Runtime Dynamic = 0.00522207 W

              Integer RF:
                Area = 0.362673 mm^2
                Peak Dynamic = 0.00490437 W
                Subthreshold Leakage = 0.00614175 W
                Subthreshold Leakage with power gating = 0.00246675 W
                Gate Leakage = 0.00038992 W
                Runtime Dynamic = 0.00460007 W

              Floating Point RF:
                Area = 0.208131 mm^2
                Peak Dynamic = 0.00118108 W
                Subthreshold Leakage = 0.00399698 W
                Subthreshold Leakage with power gating = 0.00176968 W
                Gate Leakage = 0.000232788 W
                Runtime Dynamic = 0.000621993 W

          Instruction Scheduler:
            Area = 2.17927 mm^2
            Peak Dynamic = 4.84781 W
            Subthreshold Leakage = 0.114878 W
            Subthreshold Leakage with power gating = 0.0641291 W
            Gate Leakage = 0.00730101 W
            Runtime Dynamic = 0.0669304 W

              Instruction Window:
                Area = 1.00996 mm^2
                Peak Dynamic = 2.07911 W
                Subthreshold Leakage = 0.0800117 W
                Subthreshold Leakage with power gating = 0.0455351 W
                Gate Leakage = 0.00529112 W
                Runtime Dynamic = 0.0297119 W

              FP Instruction Window:
                Area = 0.328073 mm^2
                Peak Dynamic = 1.20978 W
                Subthreshold Leakage = 0.017004 W
                Subthreshold Leakage with power gating = 0.00962066 W
                Gate Leakage = 0.00115349 W
                Runtime Dynamic = 0.0171582 W

              ROB:
                Area = 0.841232 mm^2
                Peak Dynamic = 1.55892 W
                Subthreshold Leakage = 0.0178624 W
                Subthreshold Leakage with power gating = 0.00897339 W
                Gate Leakage = 0.000856399 W
                Runtime Dynamic = 0.0200603 W

          Integer ALUs (Count: 6 ):
            Area = 0.47087 mm^2
            Peak Dynamic = 0.0160028 W
            Subthreshold Leakage = 0.40222 W
            Subthreshold Leakage with power gating = 0.150833 W
            Gate Leakage = 0.0265291 W
            Runtime Dynamic = 0.117003 W

          Floating Point Units (FPUs) (Count: 2 ):
            Area = 4.6585 mm^2
            Peak Dynamic = 0.00625172 W
            Subthreshold Leakage = 0.994829 W
            Subthreshold Leakage with power gating = 0.373061 W
            Gate Leakage = 0.0656156 W
            Runtime Dynamic = 0.306783 W

          Complex ALUs (Mul/Div) (Count: 1 ):
            Area = 0.235435 mm^2
            Peak Dynamic = 0.0011119 W
            Subthreshold Leakage = 0.20111 W
            Subthreshold Leakage with power gating = 0.0754163 W
            Gate Leakage = 0.0132646 W
            Runtime Dynamic = 0.203562 W

          Results Broadcast Bus:
            Area Overhead = 0.0442632 mm^2
            Peak Dynamic = 0.0121556 W
            Subthreshold Leakage = 0.0920413 W
            Subthreshold Leakage with power gating = 0.0345155 W
            Gate Leakage = 0.00607074 W
            Runtime Dynamic = 0.0347314 W

    L2
    Area = 22.2273 mm^2
    Peak Dynamic = 0.047556 W
    Subthreshold Leakage = 4.28281 W
    Subthreshold Leakage with power gating = 1.92539 W
    Gate Leakage = 0.0518439 W
    Runtime Dynamic = 0.0100102 W

*****************************************************************************************
      L3
      Area = 61.9075 mm^2
      Peak Dynamic = 0.712863 W
      Subthreshold Leakage = 6.80085 W
      Subthreshold Leakage with power gating = 3.32364 W
      Gate Leakage = 0.0484137 W
      Runtime Dynamic = 0.273441 W

*****************************************************************************************
      L3
      Area = 61.9075 mm^2
      Peak Dynamic = 0.687084 W
      Subthreshold Leakage = 6.80085 W
      Subthreshold Leakage with power gating = 3.32364 W
      Gate Leakage = 0.0484137 W
      Runtime Dynamic = 0.269002 W

*****************************************************************************************
BUSES
      Area = 5.83965 mm^2
      Peak Dynamic = 7.37686 W
      Subthreshold Leakage = 0.163365 W
      Subthreshold Leakage with power gating = 0.0612617 W
      Gate Leakage = 0.0156661 W
      Runtime Dynamic = 0.808228 W

      Bus: 
        Area = 5.83965 mm^2
        Peak Dynamic = 7.37686 W
        Subthreshold Leakage = 0.163365 W
        Subthreshold Leakage with power gating = 0.0612617 W
        Gate Leakage = 0.0156661 W
        Runtime Dynamic = 0.808228 W

*****************************************************************************************
